/*---------------------------------------------------------------------------*\
| =========                 |                                                 |
| \\      /  F ield         | OpenFOAM: The Open Source CFD Toolbox           |
|  \\    /   O peration     | Version:  v1606+                                |
|   \\  /    A nd           | Web:      www.OpenFOAM.com                      |
|    \\/     M anipulation  |                                                 |
\*---------------------------------------------------------------------------*/
Build  : v1606+
Exec   : blockMesh
Date   : Oct 07 2016
Time   : 01:11:09
Host   : "default"
PID    : 792
Case   : /home/ofuser/workingDir/butterfly/outdoor_airflow
nProcs : 1
sigFpe : Enabling floating point exception trapping (FOAM_SIGFPE).
fileModificationChecking : Monitoring run-time modified files using timeStampMaster
allowSystemOperations : Allowing user-supplied system call operations

// * * * * * * * * * * * * * * * * * * * * * * * * * * * * * * * * * * * * * //
Create time

Creating block mesh from
    "/home/ofuser/workingDir/butterfly/outdoor_airflow/system/blockMeshDict"
Creating curved edges
Creating topology blocks
Creating topology patches

Creating block mesh topology

Check topology

	Basic statistics
		Number of internal faces : 0
		Number of boundary faces : 6
		Number of defined boundary faces : 6
		Number of undefined boundary faces : 0
	Checking patch -> block consistency

Creating block offsets
Creating merge list .

Creating polyMesh from blockMesh
Creating patches
Creating cells
Creating points with scale 1
    Block 0 cell size :
        i : 5.252311 .. 5.252311
        j : 7.58131 .. 45.48786
        k : 9.417528 .. 9.417528


There are no merge patch pairs edges

Writing polyMesh
----------------
Mesh Information
----------------
  boundingBox: (-7.91217 -12.13029 0) (39.35863 139.4959 28.25258)
  nPoints: 440
  nCells: 270
  nFaces: 957
  nInternalFaces: 663
----------------
Patches
----------------
  patch 0 (start: 663 size: 27) name: inlet
  patch 1 (start: 690 size: 27) name: outlet
  patch 2 (start: 717 size: 30) name: rightSide
  patch 3 (start: 747 size: 30) name: lefttSide
  patch 4 (start: 777 size: 90) name: top
  patch 5 (start: 867 size: 90) name: ground

End

