/*---------------------------------------------------------------------------*\
| =========                 |                                                 |
| \\      /  F ield         | OpenFOAM: The Open Source CFD Toolbox           |
|  \\    /   O peration     | Version:  v1606+                                |
|   \\  /    A nd           | Web:      www.OpenFOAM.com                      |
|    \\/     M anipulation  |                                                 |
\*---------------------------------------------------------------------------*/
Build  : v1606+
Exec   : checkMesh -latestTime
Date   : Oct 07 2016
Time   : 01:35:51
Host   : "default"
PID    : 1408
Case   : /home/ofuser/workingDir/butterfly/outdoor_airflow
nProcs : 1
sigFpe : Enabling floating point exception trapping (FOAM_SIGFPE).
fileModificationChecking : Monitoring run-time modified files using timeStampMaster
allowSystemOperations : Allowing user-supplied system call operations

// * * * * * * * * * * * * * * * * * * * * * * * * * * * * * * * * * * * * * //
Create time

Create polyMesh for time = 0

Time = 0

Mesh stats
    points:           131970
    faces:            371877
    internal faces:   362259
    cells:            120049
    faces per cell:   6.115303
    boundary patches: 7
    point zones:      0
    face zones:       0
    cell zones:       0

Overall number of cells of each type:
    hexahedra:     115044
    prisms:        0
    wedges:        0
    pyramids:      0
    tet wedges:    0
    tetrahedra:    0
    polyhedra:     5005
    Breakdown of polyhedra by number of faces:
        faces   number of cells
            6   420
            9   4557
           12   27
           15   1

Checking topology...
    Boundary definition OK.
    Cell to face addressing OK.
    Point usage OK.
    Upper triangular ordering OK.
    Face vertices OK.
    Number of regions: 1 (OK).

Checking patch topology for multiply connected surfaces...
                   Patch    Faces   Points                  Surface topology
                   inlet       27       40  ok (non-closed singly connected)
                  outlet       27       40  ok (non-closed singly connected)
               rightSide       72       95  ok (non-closed singly connected)
               lefttSide       72       95  ok (non-closed singly connected)
                     top       90      110  ok (non-closed singly connected)
                  ground     6546     6817  ok (non-closed singly connected)
               buildings     2784     2867  ok (non-closed singly connected)

Checking geometry...
    Overall domain bounding box (-7.91217 -12.13029 0) (39.35863 139.4959 28.25258)
    Mesh has 3 geometric (non-empty/wedge) directions (1 1 1)
    Mesh has 3 solution (non-empty) directions (1 1 1)
    Boundary openness (-4.42562e-17 5.164273e-18 -3.811073e-15) OK.
    Max cell openness = 2.9938e-16 OK.
    Max aspect ratio = 8.660547 OK.
    Minimum face area = 0.1125025. Maximum face area = 428.3834.  Face area magnitudes OK.
    Min volume = 0.07405907. Max volume = 2250.007.  Total volume = 201510.  Cell volumes OK.
    Mesh non-orthogonality Max: 37.49847 average: 5.689109
    Non-orthogonality check OK.
    Face pyramids OK.
    Max skewness = 0.912614 OK.
    Coupled point location match (average 0) OK.

Mesh OK.

End

