/*---------------------------------------------------------------------------*\
| =========                 |                                                 |
| \\      /  F ield         | OpenFOAM: The Open Source CFD Toolbox           |
|  \\    /   O peration     | Version:  v1606+                                |
|   \\  /    A nd           | Web:      www.OpenFOAM.com                      |
|    \\/     M anipulation  |                                                 |
\*---------------------------------------------------------------------------*/
Build  : v1606+
Exec   : decomposePar
Date   : Oct 07 2016
Time   : 01:34:51
Host   : "default"
PID    : 1189
Case   : /home/ofuser/workingDir/butterfly/outdoor_airflow
nProcs : 1
sigFpe : Enabling floating point exception trapping (FOAM_SIGFPE).
fileModificationChecking : Monitoring run-time modified files using timeStampMaster
allowSystemOperations : Allowing user-supplied system call operations

// * * * * * * * * * * * * * * * * * * * * * * * * * * * * * * * * * * * * * //
Create time



Decomposing mesh region0

Create mesh

Calculating distribution of cells
Selecting decompositionMethod scotch

Finished decomposition in 0.01 s

Calculating original mesh data

Distributing cells to processors

Distributing faces to processors

Distributing points to processors

Constructing processor meshes

Processor 0
    Number of cells = 135
    Number of faces shared with processor 1 = 27
    Number of processor patches = 1
    Number of processor faces = 27
    Number of boundary faces = 147

Processor 1
    Number of cells = 135
    Number of faces shared with processor 0 = 27
    Number of processor patches = 1
    Number of processor faces = 27
    Number of boundary faces = 147

Number of processor faces = 27
Max number of cells = 135 (0% above average 135)
Max number of processor patches = 1 (0% above average 1)
Max number of faces between processors = 27 (0% above average 27)

Time = 0
--> FOAM Warning : 
    From function bool Foam::IOobject::readHeader(Foam::Istream&)
    in file db/IOobject/IOobjectReadHeader.C at line 88
    Reading "/home/ofuser/workingDir/butterfly/outdoor_airflow/0/ABLConditions" at line 11
    First token could not be read or is not the keyword 'FoamFile'

Check header is of the form:

/*--------------------------------*- C++ -*----------------------------------*\
| =========                 |                                                 |
| \\      /  F ield         | OpenFOAM: The Open Source CFD Toolbox           |
|  \\    /   O peration     | Version:  v1606+                                |
|   \\  /    A nd           | Web:      www.OpenFOAM.com                      |
|    \\/     M anipulation  |                                                 |
\*---------------------------------------------------------------------------*/
FoamFile
{
    version     2.0;
    format      ascii;
    class       IOobject;
    location    "0";
    object      ABLConditions;
}
// * * * * * * * * * * * * * * * * * * * * * * * * * * * * * * * * * * * * * //

--> FOAM Warning : 
    From function bool Foam::IOobject::readHeader(Foam::Istream&)
    in file db/IOobject/IOobjectReadHeader.C at line 88
    Reading "/home/ofuser/workingDir/butterfly/outdoor_airflow/0/initialConditions" at line 11
    First token could not be read or is not the keyword 'FoamFile'

Check header is of the form:

/*--------------------------------*- C++ -*----------------------------------*\
| =========                 |                                                 |
| \\      /  F ield         | OpenFOAM: The Open Source CFD Toolbox           |
|  \\    /   O peration     | Version:  v1606+                                |
|   \\  /    A nd           | Web:      www.OpenFOAM.com                      |
|    \\/     M anipulation  |                                                 |
\*---------------------------------------------------------------------------*/
FoamFile
{
    version     2.0;
    format      ascii;
    class       IOobject;
    location    "0";
    object      initialConditions;
}
// * * * * * * * * * * * * * * * * * * * * * * * * * * * * * * * * * * * * * //


Processor 0: field transfer
Processor 1: field transfer

End

