/*---------------------------------------------------------------------------*\
| =========                 |                                                 |
| \\      /  F ield         | OpenFOAM: The Open Source CFD Toolbox           |
|  \\    /   O peration     | Version:  v1606+                                |
|   \\  /    A nd           | Web:      www.OpenFOAM.com                      |
|    \\/     M anipulation  |                                                 |
\*---------------------------------------------------------------------------*/
Build  : v1606+
Exec   : simpleFoam -parallel
Date   : Oct 07 2016
Time   : 02:21:28
Host   : "default"
PID    : 1618
Case   : /home/ofuser/workingDir/butterfly/indoor_airflow
nProcs : 2
Slaves : 1("default.1619")
Pstream initialized with:
    floatTransfer      : 0
    nProcsSimpleSum    : 0
    commsType          : nonBlocking
    polling iterations : 0
sigFpe : Enabling floating point exception trapping (FOAM_SIGFPE).
fileModificationChecking : Monitoring run-time modified files using timeStampMaster
allowSystemOperations : Allowing user-supplied system call operations

// * * * * * * * * * * * * * * * * * * * * * * * * * * * * * * * * * * * * * //
Create time

Create mesh for time = 0


SIMPLE: convergence criteria
    field k	 tolerance 0.0001
    field U	 tolerance 0.0001
    field epsilon	 tolerance 0.0001
    field p	 tolerance 0.0001

Reading field p

Reading field U

Reading/calculating face flux field phi

Selecting incompressible transport model Newtonian
Selecting turbulence model type RAS
Selecting RAS turbulence model kEpsilon
kEpsilonCoeffs
{
    Cmu             0.09;
    C1              1.44;
    C2              1.92;
    C3              -0.33;
    sigmak          1;
    sigmaEps        1.3;
}

No MRF models present

No finite volume options present


Starting time loop

Time = 1

smoothSolver:  Solving for Ux, Initial residual = 1, Final residual = 0.04128479, No Iterations 3
smoothSolver:  Solving for Uy, Initial residual = 0, Final residual = 0, No Iterations 0
smoothSolver:  Solving for Uz, Initial residual = 0, Final residual = 0, No Iterations 0
GAMG:  Solving for p, Initial residual = 1, Final residual = 0.02867963, No Iterations 4
GAMG:  Solving for p, Initial residual = 0.1345534, Final residual = 0.008943127, No Iterations 1
GAMG:  Solving for p, Initial residual = 0.02626408, Final residual = 0.000800968, No Iterations 2
time step continuity errors : sum local = 0.000557103, global = -4.135975e-05, cumulative = -4.135975e-05
smoothSolver:  Solving for epsilon, Initial residual = 0.07078063, Final residual = 0.003780201, No Iterations 3
smoothSolver:  Solving for k, Initial residual = 1, Final residual = 0.04841525, No Iterations 4
ExecutionTime = 1.16 s  ClockTime = 3 s

Time = 2

smoothSolver:  Solving for Ux, Initial residual = 0.5709954, Final residual = 0.03697884, No Iterations 4
smoothSolver:  Solving for Uy, Initial residual = 0.6086779, Final residual = 0.03499312, No Iterations 4
smoothSolver:  Solving for Uz, Initial residual = 0.5948368, Final residual = 0.04144717, No Iterations 4
GAMG:  Solving for p, Initial residual = 0.4133534, Final residual = 0.01747663, No Iterations 3
GAMG:  Solving for p, Initial residual = 0.1516149, Final residual = 0.006138303, No Iterations 2
GAMG:  Solving for p, Initial residual = 0.04272708, Final residual = 0.003811265, No Iterations 1
time step continuity errors : sum local = 0.001048436, global = 3.148542e-05, cumulative = -9.874329e-06
smoothSolver:  Solving for epsilon, Initial residual = 0.05138553, Final residual = 0.003201396, No Iterations 3
smoothSolver:  Solving for k, Initial residual = 0.4379644, Final residual = 0.03740735, No Iterations 3
ExecutionTime = 1.43 s  ClockTime = 4 s

Time = 3

smoothSolver:  Solving for Ux, Initial residual = 0.3059346, Final residual = 0.02013489, No Iterations 4
smoothSolver:  Solving for Uy, Initial residual = 0.2111141, Final residual = 0.01247374, No Iterations 4
smoothSolver:  Solving for Uz, Initial residual = 0.2328594, Final residual = 0.01566918, No Iterations 4
GAMG:  Solving for p, Initial residual = 0.4810263, Final residual = 0.02409772, No Iterations 3
GAMG:  Solving for p, Initial residual = 0.1970197, Final residual = 0.01618718, No Iterations 1
GAMG:  Solving for p, Initial residual = 0.04386646, Final residual = 0.001928087, No Iterations 2
time step continuity errors : sum local = 0.001026068, global = 1.594317e-05, cumulative = 6.068843e-06
smoothSolver:  Solving for epsilon, Initial residual = 0.09903112, Final residual = 0.009159092, No Iterations 3
smoothSolver:  Solving for k, Initial residual = 0.3221173, Final residual = 0.0147045, No Iterations 4
ExecutionTime = 1.71 s  ClockTime = 5 s

Time = 4

smoothSolver:  Solving for Ux, Initial residual = 0.08445787, Final residual = 0.007890779, No Iterations 3
smoothSolver:  Solving for Uy, Initial residual = 0.1249324, Final residual = 0.01243799, No Iterations 3
smoothSolver:  Solving for Uz, Initial residual = 0.1120928, Final residual = 0.006235764, No Iterations 4
GAMG:  Solving for p, Initial residual = 0.4982542, Final residual = 0.02245724, No Iterations 3
GAMG:  Solving for p, Initial residual = 0.1294127, Final residual = 0.01093216, No Iterations 1
GAMG:  Solving for p, Initial residual = 0.02971851, Final residual = 0.00137023, No Iterations 2
time step continuity errors : sum local = 0.0006252714, global = 7.398456e-05, cumulative = 8.005341e-05
smoothSolver:  Solving for epsilon, Initial residual = 0.09184914, Final residual = 0.008788965, No Iterations 3
smoothSolver:  Solving for k, Initial residual = 0.1852686, Final residual = 0.01850882, No Iterations 3
ExecutionTime = 1.95 s  ClockTime = 5 s

Time = 5

smoothSolver:  Solving for Ux, Initial residual = 0.1529001, Final residual = 0.009643067, No Iterations 4
smoothSolver:  Solving for Uy, Initial residual = 0.2040459, Final residual = 0.01261338, No Iterations 4
smoothSolver:  Solving for Uz, Initial residual = 0.2523258, Final residual = 0.01747191, No Iterations 4
GAMG:  Solving for p, Initial residual = 0.5385405, Final residual = 0.05131689, No Iterations 2
GAMG:  Solving for p, Initial residual = 0.133404, Final residual = 0.008959646, No Iterations 2
GAMG:  Solving for p, Initial residual = 0.05480212, Final residual = 0.002013986, No Iterations 2
time step continuity errors : sum local = 0.0005159846, global = -8.598605e-05, cumulative = -5.932647e-06
smoothSolver:  Solving for epsilon, Initial residual = 0.06776045, Final residual = 0.005358732, No Iterations 3
smoothSolver:  Solving for k, Initial residual = 0.1071905, Final residual = 0.009204777, No Iterations 3
ExecutionTime = 2.22 s  ClockTime = 6 s

Time = 6

smoothSolver:  Solving for Ux, Initial residual = 0.1170331, Final residual = 0.007397066, No Iterations 4
smoothSolver:  Solving for Uy, Initial residual = 0.1506957, Final residual = 0.009253513, No Iterations 4
smoothSolver:  Solving for Uz, Initial residual = 0.2146655, Final residual = 0.01417911, No Iterations 4
GAMG:  Solving for p, Initial residual = 0.5725594, Final residual = 0.02591576, No Iterations 3
GAMG:  Solving for p, Initial residual = 0.1799951, Final residual = 0.01618042, No Iterations 1
GAMG:  Solving for p, Initial residual = 0.04370387, Final residual = 0.002639361, No Iterations 2
time step continuity errors : sum local = 0.0008718722, global = 2.810081e-05, cumulative = 2.216816e-05
smoothSolver:  Solving for epsilon, Initial residual = 0.04736419, Final residual = 0.003190333, No Iterations 3
smoothSolver:  Solving for k, Initial residual = 0.07492124, Final residual = 0.006212201, No Iterations 3
ExecutionTime = 2.47 s  ClockTime = 6 s

Time = 7

smoothSolver:  Solving for Ux, Initial residual = 0.0616293, Final residual = 0.003016096, No Iterations 4
smoothSolver:  Solving for Uy, Initial residual = 0.09307853, Final residual = 0.008909344, No Iterations 3
smoothSolver:  Solving for Uz, Initial residual = 0.1453564, Final residual = 0.00767716, No Iterations 4
GAMG:  Solving for p, Initial residual = 0.6139892, Final residual = 0.04775296, No Iterations 2
GAMG:  Solving for p, Initial residual = 0.1012838, Final residual = 0.00615837, No Iterations 2
GAMG:  Solving for p, Initial residual = 0.03022796, Final residual = 0.001284857, No Iterations 2
time step continuity errors : sum local = 0.0004079182, global = 1.495812e-05, cumulative = 3.712628e-05
smoothSolver:  Solving for epsilon, Initial residual = 0.04548965, Final residual = 0.002920997, No Iterations 3
smoothSolver:  Solving for k, Initial residual = 0.070605, Final residual = 0.006228988, No Iterations 3
ExecutionTime = 2.76 s  ClockTime = 7 s

Time = 8

smoothSolver:  Solving for Ux, Initial residual = 0.09150528, Final residual = 0.005781936, No Iterations 4
smoothSolver:  Solving for Uy, Initial residual = 0.1109532, Final residual = 0.006608501, No Iterations 4
smoothSolver:  Solving for Uz, Initial residual = 0.1541158, Final residual = 0.01024067, No Iterations 4
GAMG:  Solving for p, Initial residual = 0.5058925, Final residual = 0.04177209, No Iterations 2
GAMG:  Solving for p, Initial residual = 0.1134915, Final residual = 0.005184891, No Iterations 2
GAMG:  Solving for p, Initial residual = 0.0320308, Final residual = 0.002966994, No Iterations 1
time step continuity errors : sum local = 0.0007277832, global = -4.145688e-05, cumulative = -4.330591e-06
smoothSolver:  Solving for epsilon, Initial residual = 0.04893189, Final residual = 0.00313286, No Iterations 3
smoothSolver:  Solving for k, Initial residual = 0.06384964, Final residual = 0.005670911, No Iterations 3
ExecutionTime = 3.03 s  ClockTime = 7 s

Time = 9

smoothSolver:  Solving for Ux, Initial residual = 0.06282402, Final residual = 0.003869281, No Iterations 4
smoothSolver:  Solving for Uy, Initial residual = 0.07183353, Final residual = 0.003949528, No Iterations 4
smoothSolver:  Solving for Uz, Initial residual = 0.0963751, Final residual = 0.005536114, No Iterations 4
GAMG:  Solving for p, Initial residual = 0.431674, Final residual = 0.01713036, No Iterations 3
GAMG:  Solving for p, Initial residual = 0.159431, Final residual = 0.01255235, No Iterations 1
GAMG:  Solving for p, Initial residual = 0.03846865, Final residual = 0.002056924, No Iterations 2
time step continuity errors : sum local = 0.000441203, global = -1.616476e-05, cumulative = -2.049535e-05
smoothSolver:  Solving for epsilon, Initial residual = 0.04737789, Final residual = 0.00315231, No Iterations 3
smoothSolver:  Solving for k, Initial residual = 0.05406511, Final residual = 0.004952374, No Iterations 3
ExecutionTime = 3.28 s  ClockTime = 8 s

Time = 10

smoothSolver:  Solving for Ux, Initial residual = 0.03310086, Final residual = 0.001510793, No Iterations 4
smoothSolver:  Solving for Uy, Initial residual = 0.06795435, Final residual = 0.00386484, No Iterations 4
smoothSolver:  Solving for Uz, Initial residual = 0.0893446, Final residual = 0.00571723, No Iterations 4
GAMG:  Solving for p, Initial residual = 0.4520431, Final residual = 0.03359436, No Iterations 2
GAMG:  Solving for p, Initial residual = 0.1123921, Final residual = 0.005945278, No Iterations 2
GAMG:  Solving for p, Initial residual = 0.03500508, Final residual = 0.003451832, No Iterations 1
time step continuity errors : sum local = 0.0006383615, global = 9.601302e-06, cumulative = -1.089405e-05
smoothSolver:  Solving for epsilon, Initial residual = 0.04047969, Final residual = 0.00256019, No Iterations 3
smoothSolver:  Solving for k, Initial residual = 0.04753964, Final residual = 0.004344148, No Iterations 3
ExecutionTime = 3.54 s  ClockTime = 8 s

Time = 11

smoothSolver:  Solving for Ux, Initial residual = 0.03980493, Final residual = 0.002483401, No Iterations 4
smoothSolver:  Solving for Uy, Initial residual = 0.07192624, Final residual = 0.004560805, No Iterations 4
smoothSolver:  Solving for Uz, Initial residual = 0.1058715, Final residual = 0.007592735, No Iterations 4
GAMG:  Solving for p, Initial residual = 0.4963542, Final residual = 0.03146449, No Iterations 2
GAMG:  Solving for p, Initial residual = 0.0929552, Final residual = 0.004525734, No Iterations 2
GAMG:  Solving for p, Initial residual = 0.02939102, Final residual = 0.002578501, No Iterations 1
time step continuity errors : sum local = 0.0004271259, global = -8.570503e-06, cumulative = -1.946455e-05
smoothSolver:  Solving for epsilon, Initial residual = 0.03671349, Final residual = 0.002106887, No Iterations 3
smoothSolver:  Solving for k, Initial residual = 0.04711317, Final residual = 0.004226417, No Iterations 3
ExecutionTime = 3.83 s  ClockTime = 9 s

Time = 12

smoothSolver:  Solving for Ux, Initial residual = 0.03357981, Final residual = 0.001789171, No Iterations 4
smoothSolver:  Solving for Uy, Initial residual = 0.04947744, Final residual = 0.002816648, No Iterations 4
smoothSolver:  Solving for Uz, Initial residual = 0.07794411, Final residual = 0.005174666, No Iterations 4
GAMG:  Solving for p, Initial residual = 0.4516483, Final residual = 0.03270901, No Iterations 2
GAMG:  Solving for p, Initial residual = 0.09064601, Final residual = 0.004530208, No Iterations 2
GAMG:  Solving for p, Initial residual = 0.02697933, Final residual = 0.002635807, No Iterations 1
time step continuity errors : sum local = 0.0005296235, global = -1.470349e-05, cumulative = -3.416804e-05
smoothSolver:  Solving for epsilon, Initial residual = 0.03680031, Final residual = 0.001946006, No Iterations 3
smoothSolver:  Solving for k, Initial residual = 0.0470361, Final residual = 0.004148737, No Iterations 3
ExecutionTime = 4.1 s  ClockTime = 10 s

Time = 13

smoothSolver:  Solving for Ux, Initial residual = 0.02142762, Final residual = 0.001022803, No Iterations 4
smoothSolver:  Solving for Uy, Initial residual = 0.03966355, Final residual = 0.002031469, No Iterations 4
smoothSolver:  Solving for Uz, Initial residual = 0.06166598, Final residual = 0.003261219, No Iterations 4
GAMG:  Solving for p, Initial residual = 0.3526683, Final residual = 0.0171043, No Iterations 2
GAMG:  Solving for p, Initial residual = 0.0649883, Final residual = 0.002969409, No Iterations 2
GAMG:  Solving for p, Initial residual = 0.01708131, Final residual = 0.0016583, No Iterations 1
time step continuity errors : sum local = 0.0003395391, global = -1.246988e-05, cumulative = -4.663792e-05
smoothSolver:  Solving for epsilon, Initial residual = 0.03445666, Final residual = 0.001770284, No Iterations 3
smoothSolver:  Solving for k, Initial residual = 0.0449301, Final residual = 0.00392168, No Iterations 3
ExecutionTime = 4.37 s  ClockTime = 10 s

Time = 14

smoothSolver:  Solving for Ux, Initial residual = 0.02601632, Final residual = 0.001433922, No Iterations 4
smoothSolver:  Solving for Uy, Initial residual = 0.04189192, Final residual = 0.002218685, No Iterations 4
smoothSolver:  Solving for Uz, Initial residual = 0.06124768, Final residual = 0.003466652, No Iterations 4
GAMG:  Solving for p, Initial residual = 0.2999889, Final residual = 0.01494396, No Iterations 2
GAMG:  Solving for p, Initial residual = 0.07086347, Final residual = 0.00234916, No Iterations 2
GAMG:  Solving for p, Initial residual = 0.02021568, Final residual = 0.001802118, No Iterations 1
time step continuity errors : sum local = 0.0003347215, global = 1.464755e-05, cumulative = -3.199037e-05
smoothSolver:  Solving for epsilon, Initial residual = 0.0299247, Final residual = 0.00156816, No Iterations 3
smoothSolver:  Solving for k, Initial residual = 0.04145459, Final residual = 0.003647238, No Iterations 3
ExecutionTime = 4.62 s  ClockTime = 11 s

Time = 15

smoothSolver:  Solving for Ux, Initial residual = 0.02128847, Final residual = 0.001122356, No Iterations 4
smoothSolver:  Solving for Uy, Initial residual = 0.03457484, Final residual = 0.001812033, No Iterations 4
smoothSolver:  Solving for Uz, Initial residual = 0.04922612, Final residual = 0.002646554, No Iterations 4
GAMG:  Solving for p, Initial residual = 0.2845452, Final residual = 0.01685171, No Iterations 2
GAMG:  Solving for p, Initial residual = 0.0774703, Final residual = 0.007718257, No Iterations 1
GAMG:  Solving for p, Initial residual = 0.02037676, Final residual = 0.0009135818, No Iterations 2
time step continuity errors : sum local = 0.0001492612, global = 5.442406e-06, cumulative = -2.654797e-05
smoothSolver:  Solving for epsilon, Initial residual = 0.02587684, Final residual = 0.001432935, No Iterations 3
smoothSolver:  Solving for k, Initial residual = 0.03841442, Final residual = 0.003435252, No Iterations 3
ExecutionTime = 4.87 s  ClockTime = 11 s

Time = 16

smoothSolver:  Solving for Ux, Initial residual = 0.01408044, Final residual = 0.0006863372, No Iterations 4
smoothSolver:  Solving for Uy, Initial residual = 0.03215196, Final residual = 0.001885353, No Iterations 4
smoothSolver:  Solving for Uz, Initial residual = 0.04547629, Final residual = 0.00269425, No Iterations 4
GAMG:  Solving for p, Initial residual = 0.2707639, Final residual = 0.01213383, No Iterations 2
GAMG:  Solving for p, Initial residual = 0.06117078, Final residual = 0.002271405, No Iterations 2
GAMG:  Solving for p, Initial residual = 0.01645943, Final residual = 0.001487569, No Iterations 1
time step continuity errors : sum local = 0.000226331, global = 3.053356e-07, cumulative = -2.624263e-05
smoothSolver:  Solving for epsilon, Initial residual = 0.02267575, Final residual = 0.001350429, No Iterations 3
smoothSolver:  Solving for k, Initial residual = 0.03575873, Final residual = 0.003179944, No Iterations 3
ExecutionTime = 5.12 s  ClockTime = 12 s

Time = 17

smoothSolver:  Solving for Ux, Initial residual = 0.01447113, Final residual = 0.0007542177, No Iterations 4
smoothSolver:  Solving for Uy, Initial residual = 0.03040413, Final residual = 0.001775686, No Iterations 4
smoothSolver:  Solving for Uz, Initial residual = 0.0455545, Final residual = 0.002856108, No Iterations 4
GAMG:  Solving for p, Initial residual = 0.2629378, Final residual = 0.01040813, No Iterations 2
GAMG:  Solving for p, Initial residual = 0.05385898, Final residual = 0.001516248, No Iterations 2
GAMG:  Solving for p, Initial residual = 0.01344376, Final residual = 0.001220079, No Iterations 1
time step continuity errors : sum local = 0.0001913302, global = -4.185595e-06, cumulative = -3.042823e-05
smoothSolver:  Solving for epsilon, Initial residual = 0.02096501, Final residual = 0.001278799, No Iterations 3
smoothSolver:  Solving for k, Initial residual = 0.03375194, Final residual = 0.002945816, No Iterations 3
ExecutionTime = 5.39 s  ClockTime = 12 s

Time = 18

smoothSolver:  Solving for Ux, Initial residual = 0.01163378, Final residual = 0.0006115925, No Iterations 4
smoothSolver:  Solving for Uy, Initial residual = 0.02713689, Final residual = 0.001542805, No Iterations 4
smoothSolver:  Solving for Uz, Initial residual = 0.03776165, Final residual = 0.002285885, No Iterations 4
GAMG:  Solving for p, Initial residual = 0.2262466, Final residual = 0.01264964, No Iterations 2
GAMG:  Solving for p, Initial residual = 0.05021385, Final residual = 0.002006212, No Iterations 2
GAMG:  Solving for p, Initial residual = 0.01395834, Final residual = 0.001267325, No Iterations 1
time step continuity errors : sum local = 0.000214038, global = 7.859781e-07, cumulative = -2.964225e-05
smoothSolver:  Solving for epsilon, Initial residual = 0.01993071, Final residual = 0.001184239, No Iterations 3
smoothSolver:  Solving for k, Initial residual = 0.03231381, Final residual = 0.002736016, No Iterations 3
ExecutionTime = 5.66 s  ClockTime = 13 s

Time = 19

smoothSolver:  Solving for Ux, Initial residual = 0.0103318, Final residual = 0.0004987253, No Iterations 4
smoothSolver:  Solving for Uy, Initial residual = 0.0248908, Final residual = 0.001476066, No Iterations 4
smoothSolver:  Solving for Uz, Initial residual = 0.031386, Final residual = 0.001750102, No Iterations 4
GAMG:  Solving for p, Initial residual = 0.1724631, Final residual = 0.007703281, No Iterations 2
GAMG:  Solving for p, Initial residual = 0.03778217, Final residual = 0.00367087, No Iterations 1
GAMG:  Solving for p, Initial residual = 0.009527773, Final residual = 0.0004741627, No Iterations 2
time step continuity errors : sum local = 8.195446e-05, global = -7.243615e-06, cumulative = -3.688587e-05
smoothSolver:  Solving for epsilon, Initial residual = 0.01927717, Final residual = 0.001122653, No Iterations 3
smoothSolver:  Solving for k, Initial residual = 0.03083928, Final residual = 0.002576045, No Iterations 3
ExecutionTime = 5.95 s  ClockTime = 14 s

Time = 20

smoothSolver:  Solving for Ux, Initial residual = 0.01065192, Final residual = 0.0005192274, No Iterations 4
smoothSolver:  Solving for Uy, Initial residual = 0.02370737, Final residual = 0.001417076, No Iterations 4
smoothSolver:  Solving for Uz, Initial residual = 0.03010693, Final residual = 0.001695739, No Iterations 4
GAMG:  Solving for p, Initial residual = 0.1444009, Final residual = 0.005041751, No Iterations 2
GAMG:  Solving for p, Initial residual = 0.03062346, Final residual = 0.002603243, No Iterations 1
GAMG:  Solving for p, Initial residual = 0.007495574, Final residual = 0.0002925863, No Iterations 2
time step continuity errors : sum local = 4.916789e-05, global = 7.133793e-06, cumulative = -2.975207e-05
smoothSolver:  Solving for epsilon, Initial residual = 0.01875468, Final residual = 0.001074739, No Iterations 3
smoothSolver:  Solving for k, Initial residual = 0.02926275, Final residual = 0.002422965, No Iterations 3
ExecutionTime = 6.23 s  ClockTime = 14 s

Time = 21

smoothSolver:  Solving for Ux, Initial residual = 0.009371017, Final residual = 0.000465205, No Iterations 4
smoothSolver:  Solving for Uy, Initial residual = 0.02185286, Final residual = 0.001302955, No Iterations 4
smoothSolver:  Solving for Uz, Initial residual = 0.02845123, Final residual = 0.001662139, No Iterations 4
GAMG:  Solving for p, Initial residual = 0.157036, Final residual = 0.006659714, No Iterations 2
GAMG:  Solving for p, Initial residual = 0.03234293, Final residual = 0.003023496, No Iterations 1
GAMG:  Solving for p, Initial residual = 0.008461921, Final residual = 0.0003880328, No Iterations 2
time step continuity errors : sum local = 6.37159e-05, global = 4.386304e-06, cumulative = -2.536577e-05
smoothSolver:  Solving for epsilon, Initial residual = 0.01771876, Final residual = 0.001008166, No Iterations 3
smoothSolver:  Solving for k, Initial residual = 0.02737219, Final residual = 0.002259184, No Iterations 3
ExecutionTime = 6.51 s  ClockTime = 15 s

Time = 22

smoothSolver:  Solving for Ux, Initial residual = 0.00816768, Final residual = 0.0003950971, No Iterations 4
smoothSolver:  Solving for Uy, Initial residual = 0.02105733, Final residual = 0.001229796, No Iterations 4
smoothSolver:  Solving for Uz, Initial residual = 0.02604377, Final residual = 0.00146369, No Iterations 4
GAMG:  Solving for p, Initial residual = 0.1558911, Final residual = 0.005325007, No Iterations 2
GAMG:  Solving for p, Initial residual = 0.03026882, Final residual = 0.002614202, No Iterations 1
GAMG:  Solving for p, Initial residual = 0.007102917, Final residual = 0.0003255138, No Iterations 2
time step continuity errors : sum local = 5.320618e-05, global = 5.394118e-06, cumulative = -1.997165e-05
smoothSolver:  Solving for epsilon, Initial residual = 0.01665535, Final residual = 0.0009364221, No Iterations 3
smoothSolver:  Solving for k, Initial residual = 0.02578652, Final residual = 0.002114463, No Iterations 3
ExecutionTime = 6.81 s  ClockTime = 15 s

Time = 23

smoothSolver:  Solving for Ux, Initial residual = 0.007454624, Final residual = 0.0003672756, No Iterations 4
smoothSolver:  Solving for Uy, Initial residual = 0.02037934, Final residual = 0.001179058, No Iterations 4
smoothSolver:  Solving for Uz, Initial residual = 0.02457019, Final residual = 0.001364592, No Iterations 4
GAMG:  Solving for p, Initial residual = 0.1399865, Final residual = 0.004471968, No Iterations 2
GAMG:  Solving for p, Initial residual = 0.02574365, Final residual = 0.00241926, No Iterations 1
GAMG:  Solving for p, Initial residual = 0.006281895, Final residual = 0.0001939226, No Iterations 2
time step continuity errors : sum local = 3.17398e-05, global = -7.292208e-08, cumulative = -2.004457e-05
smoothSolver:  Solving for epsilon, Initial residual = 0.01551843, Final residual = 0.0008660969, No Iterations 3
smoothSolver:  Solving for k, Initial residual = 0.0243662, Final residual = 0.001996384, No Iterations 3
ExecutionTime = 7.08 s  ClockTime = 16 s

Time = 24

smoothSolver:  Solving for Ux, Initial residual = 0.006449694, Final residual = 0.0003310951, No Iterations 4
smoothSolver:  Solving for Uy, Initial residual = 0.01983575, Final residual = 0.001158093, No Iterations 4
smoothSolver:  Solving for Uz, Initial residual = 0.02271264, Final residual = 0.001254723, No Iterations 4
GAMG:  Solving for p, Initial residual = 0.1203961, Final residual = 0.0039958, No Iterations 2
GAMG:  Solving for p, Initial residual = 0.02227797, Final residual = 0.002054658, No Iterations 1
GAMG:  Solving for p, Initial residual = 0.00524334, Final residual = 0.0002375464, No Iterations 2
time step continuity errors : sum local = 3.912776e-05, global = -3.087573e-06, cumulative = -2.313215e-05
smoothSolver:  Solving for epsilon, Initial residual = 0.01430902, Final residual = 0.0008026355, No Iterations 3
smoothSolver:  Solving for k, Initial residual = 0.02304156, Final residual = 0.001901152, No Iterations 3
ExecutionTime = 7.35 s  ClockTime = 17 s

Time = 25

smoothSolver:  Solving for Ux, Initial residual = 0.005812367, Final residual = 0.0002983983, No Iterations 4
smoothSolver:  Solving for Uy, Initial residual = 0.01922609, Final residual = 0.001129158, No Iterations 4
smoothSolver:  Solving for Uz, Initial residual = 0.02045223, Final residual = 0.001138288, No Iterations 4
GAMG:  Solving for p, Initial residual = 0.1038025, Final residual = 0.003491592, No Iterations 2
GAMG:  Solving for p, Initial residual = 0.01747326, Final residual = 0.0005039279, No Iterations 2
GAMG:  Solving for p, Initial residual = 0.004675397, Final residual = 0.0003536942, No Iterations 1
time step continuity errors : sum local = 5.849336e-05, global = -2.247619e-06, cumulative = -2.537976e-05
smoothSolver:  Solving for epsilon, Initial residual = 0.0131108, Final residual = 0.0007422035, No Iterations 3
smoothSolver:  Solving for k, Initial residual = 0.02177542, Final residual = 0.001815676, No Iterations 3
ExecutionTime = 7.61 s  ClockTime = 17 s

Time = 26

smoothSolver:  Solving for Ux, Initial residual = 0.005427135, Final residual = 0.0002851969, No Iterations 4
smoothSolver:  Solving for Uy, Initial residual = 0.01832845, Final residual = 0.001070117, No Iterations 4
smoothSolver:  Solving for Uz, Initial residual = 0.01899463, Final residual = 0.001067868, No Iterations 4
GAMG:  Solving for p, Initial residual = 0.09272891, Final residual = 0.003228911, No Iterations 2
GAMG:  Solving for p, Initial residual = 0.01547294, Final residual = 0.0005008058, No Iterations 2
GAMG:  Solving for p, Initial residual = 0.003326251, Final residual = 0.0003056627, No Iterations 1
time step continuity errors : sum local = 5.048152e-05, global = 2.660685e-06, cumulative = -2.271908e-05
smoothSolver:  Solving for epsilon, Initial residual = 0.01195471, Final residual = 0.0006820216, No Iterations 3
smoothSolver:  Solving for k, Initial residual = 0.02053117, Final residual = 0.001733347, No Iterations 3
ExecutionTime = 7.86 s  ClockTime = 18 s

Time = 27

smoothSolver:  Solving for Ux, Initial residual = 0.005027396, Final residual = 0.0002692144, No Iterations 4
smoothSolver:  Solving for Uy, Initial residual = 0.01745612, Final residual = 0.001009875, No Iterations 4
smoothSolver:  Solving for Uz, Initial residual = 0.01779532, Final residual = 0.001007207, No Iterations 4
GAMG:  Solving for p, Initial residual = 0.08442779, Final residual = 0.003127371, No Iterations 2
GAMG:  Solving for p, Initial residual = 0.01523057, Final residual = 0.001421712, No Iterations 1
GAMG:  Solving for p, Initial residual = 0.003485268, Final residual = 0.0001570219, No Iterations 2
time step continuity errors : sum local = 2.59014e-05, global = 2.309666e-06, cumulative = -2.040941e-05
smoothSolver:  Solving for epsilon, Initial residual = 0.01082679, Final residual = 0.0006233296, No Iterations 3
smoothSolver:  Solving for k, Initial residual = 0.01932, Final residual = 0.001653137, No Iterations 3
ExecutionTime = 8.11 s  ClockTime = 18 s

Time = 28

smoothSolver:  Solving for Ux, Initial residual = 0.004751403, Final residual = 0.0002533899, No Iterations 4
smoothSolver:  Solving for Uy, Initial residual = 0.01680703, Final residual = 0.0009623916, No Iterations 4
smoothSolver:  Solving for Uz, Initial residual = 0.01645636, Final residual = 0.0009268023, No Iterations 4
GAMG:  Solving for p, Initial residual = 0.07778589, Final residual = 0.003069954, No Iterations 2
GAMG:  Solving for p, Initial residual = 0.01396008, Final residual = 0.000382387, No Iterations 2
GAMG:  Solving for p, Initial residual = 0.003375276, Final residual = 0.0002923816, No Iterations 1
time step continuity errors : sum local = 4.836406e-05, global = 1.596133e-06, cumulative = -1.881328e-05
smoothSolver:  Solving for epsilon, Initial residual = 0.009766198, Final residual = 0.0005689611, No Iterations 3
smoothSolver:  Solving for k, Initial residual = 0.01822358, Final residual = 0.001579798, No Iterations 3
ExecutionTime = 8.41 s  ClockTime = 19 s

Time = 29

smoothSolver:  Solving for Ux, Initial residual = 0.004536688, Final residual = 0.0002417058, No Iterations 4
smoothSolver:  Solving for Uy, Initial residual = 0.01625775, Final residual = 0.0009269114, No Iterations 4
smoothSolver:  Solving for Uz, Initial residual = 0.01510106, Final residual = 0.0008437073, No Iterations 4
GAMG:  Solving for p, Initial residual = 0.07265982, Final residual = 0.003009212, No Iterations 2
GAMG:  Solving for p, Initial residual = 0.01349613, Final residual = 0.0004401941, No Iterations 2
GAMG:  Solving for p, Initial residual = 0.003084652, Final residual = 0.000295313, No Iterations 1
time step continuity errors : sum local = 4.920434e-05, global = -2.440005e-06, cumulative = -2.125329e-05
smoothSolver:  Solving for epsilon, Initial residual = 0.008836988, Final residual = 0.0005208217, No Iterations 3
smoothSolver:  Solving for k, Initial residual = 0.01724446, Final residual = 0.001516553, No Iterations 3
ExecutionTime = 8.64 s  ClockTime = 19 s

Time = 30

smoothSolver:  Solving for Ux, Initial residual = 0.00428456, Final residual = 0.0002289029, No Iterations 4
smoothSolver:  Solving for Uy, Initial residual = 0.01573909, Final residual = 0.0008972966, No Iterations 4
smoothSolver:  Solving for Uz, Initial residual = 0.01390317, Final residual = 0.0007689799, No Iterations 4
GAMG:  Solving for p, Initial residual = 0.06805828, Final residual = 0.002640888, No Iterations 2
GAMG:  Solving for p, Initial residual = 0.01248597, Final residual = 0.0003341662, No Iterations 2
GAMG:  Solving for p, Initial residual = 0.003030354, Final residual = 0.0002460029, No Iterations 1
time step continuity errors : sum local = 4.137414e-05, global = -2.303121e-06, cumulative = -2.355641e-05
smoothSolver:  Solving for epsilon, Initial residual = 0.008063106, Final residual = 0.0004812638, No Iterations 3
smoothSolver:  Solving for k, Initial residual = 0.01640546, Final residual = 0.001463804, No Iterations 3
ExecutionTime = 8.92 s  ClockTime = 20 s

Time = 31

smoothSolver:  Solving for Ux, Initial residual = 0.004090928, Final residual = 0.0002180799, No Iterations 4
smoothSolver:  Solving for Uy, Initial residual = 0.01508916, Final residual = 0.0008612503, No Iterations 4
smoothSolver:  Solving for Uz, Initial residual = 0.01276126, Final residual = 0.0007025764, No Iterations 4
GAMG:  Solving for p, Initial residual = 0.06329273, Final residual = 0.002515956, No Iterations 2
GAMG:  Solving for p, Initial residual = 0.01116273, Final residual = 0.0003568358, No Iterations 2
GAMG:  Solving for p, Initial residual = 0.002555787, Final residual = 0.0002402098, No Iterations 1
time step continuity errors : sum local = 4.067699e-05, global = -1.28805e-07, cumulative = -2.368521e-05
smoothSolver:  Solving for epsilon, Initial residual = 0.00741404, Final residual = 0.0004490971, No Iterations 3
smoothSolver:  Solving for k, Initial residual = 0.01569224, Final residual = 0.001419822, No Iterations 3
ExecutionTime = 9.19 s  ClockTime = 21 s

Time = 32

smoothSolver:  Solving for Ux, Initial residual = 0.003957459, Final residual = 0.0002112551, No Iterations 4
smoothSolver:  Solving for Uy, Initial residual = 0.01426863, Final residual = 0.0008117489, No Iterations 4
smoothSolver:  Solving for Uz, Initial residual = 0.01173207, Final residual = 0.0006457849, No Iterations 4
GAMG:  Solving for p, Initial residual = 0.0591578, Final residual = 0.002314503, No Iterations 2
GAMG:  Solving for p, Initial residual = 0.01046035, Final residual = 0.000351301, No Iterations 2
GAMG:  Solving for p, Initial residual = 0.002277947, Final residual = 0.0002144978, No Iterations 1
time step continuity errors : sum local = 3.647498e-05, global = 1.806667e-06, cumulative = -2.187854e-05
smoothSolver:  Solving for epsilon, Initial residual = 0.006845549, Final residual = 0.0004217517, No Iterations 3
smoothSolver:  Solving for k, Initial residual = 0.01507146, Final residual = 0.001381456, No Iterations 3
ExecutionTime = 9.46 s  ClockTime = 21 s

Time = 33

smoothSolver:  Solving for Ux, Initial residual = 0.00383823, Final residual = 0.0002050822, No Iterations 4
smoothSolver:  Solving for Uy, Initial residual = 0.01343822, Final residual = 0.000758952, No Iterations 4
smoothSolver:  Solving for Uz, Initial residual = 0.01082647, Final residual = 0.0005928818, No Iterations 4
GAMG:  Solving for p, Initial residual = 0.05559661, Final residual = 0.002247713, No Iterations 2
GAMG:  Solving for p, Initial residual = 0.01005733, Final residual = 0.0009971795, No Iterations 1
GAMG:  Solving for p, Initial residual = 0.002464542, Final residual = 0.0001320103, No Iterations 2
time step continuity errors : sum local = 2.251721e-05, global = -5.800908e-07, cumulative = -2.245864e-05
smoothSolver:  Solving for epsilon, Initial residual = 0.006350447, Final residual = 0.0003984218, No Iterations 3
smoothSolver:  Solving for k, Initial residual = 0.01452411, Final residual = 0.001346668, No Iterations 3
ExecutionTime = 9.74 s  ClockTime = 22 s

Time = 34

smoothSolver:  Solving for Ux, Initial residual = 0.003720767, Final residual = 0.0001983952, No Iterations 4
smoothSolver:  Solving for Uy, Initial residual = 0.01274723, Final residual = 0.0007158817, No Iterations 4
smoothSolver:  Solving for Uz, Initial residual = 0.00992055, Final residual = 0.0005391174, No Iterations 4
GAMG:  Solving for p, Initial residual = 0.05324928, Final residual = 0.002136825, No Iterations 2
GAMG:  Solving for p, Initial residual = 0.009819446, Final residual = 0.000957742, No Iterations 1
GAMG:  Solving for p, Initial residual = 0.002334139, Final residual = 0.0001209682, No Iterations 2
time step continuity errors : sum local = 2.070814e-05, global = -4.048293e-07, cumulative = -2.286346e-05
smoothSolver:  Solving for epsilon, Initial residual = 0.005968858, Final residual = 0.0003791919, No Iterations 3
smoothSolver:  Solving for k, Initial residual = 0.01406576, Final residual = 0.001313904, No Iterations 3
ExecutionTime = 10.02 s  ClockTime = 22 s

Time = 35

smoothSolver:  Solving for Ux, Initial residual = 0.003595774, Final residual = 0.000191364, No Iterations 4
smoothSolver:  Solving for Uy, Initial residual = 0.01220764, Final residual = 0.0006835811, No Iterations 4
smoothSolver:  Solving for Uz, Initial residual = 0.009058669, Final residual = 0.0004874208, No Iterations 4
GAMG:  Solving for p, Initial residual = 0.05140089, Final residual = 0.002047006, No Iterations 2
GAMG:  Solving for p, Initial residual = 0.009597195, Final residual = 0.0009078679, No Iterations 1
GAMG:  Solving for p, Initial residual = 0.002245196, Final residual = 9.003419e-05, No Iterations 2
time step continuity errors : sum local = 1.549329e-05, global = 2.298231e-07, cumulative = -2.263364e-05
smoothSolver:  Solving for epsilon, Initial residual = 0.005697758, Final residual = 0.0003647587, No Iterations 3
smoothSolver:  Solving for k, Initial residual = 0.01368405, Final residual = 0.001282404, No Iterations 3
ExecutionTime = 10.28 s  ClockTime = 23 s

Time = 36

smoothSolver:  Solving for Ux, Initial residual = 0.003465625, Final residual = 0.0001841026, No Iterations 4
smoothSolver:  Solving for Uy, Initial residual = 0.01174219, Final residual = 0.0006580459, No Iterations 4
smoothSolver:  Solving for Uz, Initial residual = 0.008296686, Final residual = 0.0004413624, No Iterations 4
GAMG:  Solving for p, Initial residual = 0.04917063, Final residual = 0.001917557, No Iterations 2
GAMG:  Solving for p, Initial residual = 0.009355983, Final residual = 0.0008786876, No Iterations 1
GAMG:  Solving for p, Initial residual = 0.002153113, Final residual = 0.0001044774, No Iterations 2
time step continuity errors : sum local = 1.807146e-05, global = -5.594731e-08, cumulative = -2.268959e-05
smoothSolver:  Solving for epsilon, Initial residual = 0.005519026, Final residual = 0.0003559352, No Iterations 3
smoothSolver:  Solving for k, Initial residual = 0.01335741, Final residual = 0.001250996, No Iterations 3
ExecutionTime = 10.57 s  ClockTime = 23 s

Time = 37

smoothSolver:  Solving for Ux, Initial residual = 0.003339766, Final residual = 0.0001776507, No Iterations 4
smoothSolver:  Solving for Uy, Initial residual = 0.01126255, Final residual = 0.0006322326, No Iterations 4
smoothSolver:  Solving for Uz, Initial residual = 0.007649149, Final residual = 0.0004019471, No Iterations 4
GAMG:  Solving for p, Initial residual = 0.04688959, Final residual = 0.001847333, No Iterations 2
GAMG:  Solving for p, Initial residual = 0.009032096, Final residual = 0.0008702733, No Iterations 1
GAMG:  Solving for p, Initial residual = 0.00206541, Final residual = 9.986934e-05, No Iterations 2
time step continuity errors : sum local = 1.733866e-05, global = -5.065706e-08, cumulative = -2.274025e-05
smoothSolver:  Solving for epsilon, Initial residual = 0.005404663, Final residual = 0.0003507787, No Iterations 3
smoothSolver:  Solving for k, Initial residual = 0.01307635, Final residual = 0.001219445, No Iterations 3
ExecutionTime = 10.81 s  ClockTime = 24 s

Time = 38

smoothSolver:  Solving for Ux, Initial residual = 0.003210142, Final residual = 0.0001718454, No Iterations 4
smoothSolver:  Solving for Uy, Initial residual = 0.01075546, Final residual = 0.0006032525, No Iterations 4
smoothSolver:  Solving for Uz, Initial residual = 0.007084248, Final residual = 0.0003681789, No Iterations 4
GAMG:  Solving for p, Initial residual = 0.04479528, Final residual = 0.001770869, No Iterations 2
GAMG:  Solving for p, Initial residual = 0.008639933, Final residual = 0.0008423855, No Iterations 1
GAMG:  Solving for p, Initial residual = 0.001980624, Final residual = 0.0001042315, No Iterations 2
time step continuity errors : sum local = 1.816534e-05, global = -8.192866e-09, cumulative = -2.274844e-05
smoothSolver:  Solving for epsilon, Initial residual = 0.005336664, Final residual = 0.0003469866, No Iterations 3
smoothSolver:  Solving for k, Initial residual = 0.01282439, Final residual = 0.001187227, No Iterations 3
ExecutionTime = 11.1 s  ClockTime = 25 s

Time = 39

smoothSolver:  Solving for Ux, Initial residual = 0.003078205, Final residual = 0.0001657871, No Iterations 4
smoothSolver:  Solving for Uy, Initial residual = 0.01020348, Final residual = 0.0005726794, No Iterations 4
smoothSolver:  Solving for Uz, Initial residual = 0.006566096, Final residual = 0.0003380121, No Iterations 4
GAMG:  Solving for p, Initial residual = 0.04300471, Final residual = 0.001675016, No Iterations 2
GAMG:  Solving for p, Initial residual = 0.008216367, Final residual = 0.0008023729, No Iterations 1
GAMG:  Solving for p, Initial residual = 0.001888836, Final residual = 9.115416e-05, No Iterations 2
time step continuity errors : sum local = 1.594276e-05, global = 1.448016e-06, cumulative = -2.130042e-05
smoothSolver:  Solving for epsilon, Initial residual = 0.005285808, Final residual = 0.0003440236, No Iterations 3
smoothSolver:  Solving for k, Initial residual = 0.01258353, Final residual = 0.001156772, No Iterations 3
ExecutionTime = 11.35 s  ClockTime = 25 s

Time = 40

smoothSolver:  Solving for Ux, Initial residual = 0.002945988, Final residual = 0.0001593466, No Iterations 4
smoothSolver:  Solving for Uy, Initial residual = 0.009657866, Final residual = 0.0005436506, No Iterations 4
smoothSolver:  Solving for Uz, Initial residual = 0.006073507, Final residual = 0.0003106233, No Iterations 4
GAMG:  Solving for p, Initial residual = 0.04148581, Final residual = 0.001589049, No Iterations 2
GAMG:  Solving for p, Initial residual = 0.007806903, Final residual = 0.0007647528, No Iterations 1
GAMG:  Solving for p, Initial residual = 0.00182239, Final residual = 8.733194e-05, No Iterations 2
time step continuity errors : sum local = 1.533163e-05, global = 1.12851e-06, cumulative = -2.017191e-05
smoothSolver:  Solving for epsilon, Initial residual = 0.005227174, Final residual = 0.0003400889, No Iterations 3
smoothSolver:  Solving for k, Initial residual = 0.01233894, Final residual = 0.001125144, No Iterations 3
ExecutionTime = 11.59 s  ClockTime = 26 s

Time = 41

smoothSolver:  Solving for Ux, Initial residual = 0.002820807, Final residual = 0.0001530081, No Iterations 4
smoothSolver:  Solving for Uy, Initial residual = 0.009140603, Final residual = 0.0005169077, No Iterations 4
smoothSolver:  Solving for Uz, Initial residual = 0.00562105, Final residual = 0.0002866097, No Iterations 4
GAMG:  Solving for p, Initial residual = 0.04008645, Final residual = 0.001514895, No Iterations 2
GAMG:  Solving for p, Initial residual = 0.007535717, Final residual = 0.000737062, No Iterations 1
GAMG:  Solving for p, Initial residual = 0.001814017, Final residual = 8.674201e-05, No Iterations 2
time step continuity errors : sum local = 1.529185e-05, global = 9.205397e-07, cumulative = -1.925137e-05
smoothSolver:  Solving for epsilon, Initial residual = 0.005160306, Final residual = 0.0003345448, No Iterations 3
smoothSolver:  Solving for k, Initial residual = 0.01205581, Final residual = 0.001092505, No Iterations 3
ExecutionTime = 11.83 s  ClockTime = 26 s

Time = 42

smoothSolver:  Solving for Ux, Initial residual = 0.002713177, Final residual = 0.0001473025, No Iterations 4
smoothSolver:  Solving for Uy, Initial residual = 0.008676201, Final residual = 0.0004919341, No Iterations 4
smoothSolver:  Solving for Uz, Initial residual = 0.005215978, Final residual = 0.0002652053, No Iterations 4
GAMG:  Solving for p, Initial residual = 0.03891748, Final residual = 0.001460038, No Iterations 2
GAMG:  Solving for p, Initial residual = 0.007432986, Final residual = 0.0007313568, No Iterations 1
GAMG:  Solving for p, Initial residual = 0.0018151, Final residual = 8.473439e-05, No Iterations 2
time step continuity errors : sum local = 1.500313e-05, global = -1.162797e-06, cumulative = -2.041417e-05
smoothSolver:  Solving for epsilon, Initial residual = 0.005084301, Final residual = 0.0003280008, No Iterations 3
smoothSolver:  Solving for k, Initial residual = 0.01175421, Final residual = 0.001058056, No Iterations 3
ExecutionTime = 12.09 s  ClockTime = 27 s

Time = 43

smoothSolver:  Solving for Ux, Initial residual = 0.002612292, Final residual = 0.0001418181, No Iterations 4
smoothSolver:  Solving for Uy, Initial residual = 0.008248243, Final residual = 0.0004682108, No Iterations 4
smoothSolver:  Solving for Uz, Initial residual = 0.004873604, Final residual = 0.0002472663, No Iterations 4
GAMG:  Solving for p, Initial residual = 0.03765275, Final residual = 0.001421705, No Iterations 2
GAMG:  Solving for p, Initial residual = 0.007254525, Final residual = 0.0002204557, No Iterations 2
GAMG:  Solving for p, Initial residual = 0.0016505, Final residual = 0.0001464604, No Iterations 1
time step continuity errors : sum local = 2.604092e-05, global = -9.621604e-07, cumulative = -2.137633e-05
smoothSolver:  Solving for epsilon, Initial residual = 0.005001521, Final residual = 0.0003203917, No Iterations 3
smoothSolver:  Solving for k, Initial residual = 0.01143222, Final residual = 0.001022535, No Iterations 3
ExecutionTime = 12.36 s  ClockTime = 27 s

Time = 44

smoothSolver:  Solving for Ux, Initial residual = 0.002517798, Final residual = 0.0001364583, No Iterations 4
smoothSolver:  Solving for Uy, Initial residual = 0.007840893, Final residual = 0.000445222, No Iterations 4
smoothSolver:  Solving for Uz, Initial residual = 0.004584388, Final residual = 0.0002322795, No Iterations 4
GAMG:  Solving for p, Initial residual = 0.03631328, Final residual = 0.001376722, No Iterations 2
GAMG:  Solving for p, Initial residual = 0.007015423, Final residual = 0.000216349, No Iterations 2
GAMG:  Solving for p, Initial residual = 0.001559547, Final residual = 0.00013908, No Iterations 1
time step continuity errors : sum local = 2.481453e-05, global = -8.163096e-07, cumulative = -2.219264e-05
smoothSolver:  Solving for epsilon, Initial residual = 0.004909389, Final residual = 0.0003117962, No Iterations 3
smoothSolver:  Solving for k, Initial residual = 0.0110883, Final residual = 0.0009851778, No Iterations 3
ExecutionTime = 12.64 s  ClockTime = 28 s

Time = 45

smoothSolver:  Solving for Ux, Initial residual = 0.002424732, Final residual = 0.0001312366, No Iterations 4
smoothSolver:  Solving for Uy, Initial residual = 0.007454809, Final residual = 0.0004224688, No Iterations 4
smoothSolver:  Solving for Uz, Initial residual = 0.004351569, Final residual = 0.000221034, No Iterations 4
GAMG:  Solving for p, Initial residual = 0.0350474, Final residual = 0.001318715, No Iterations 2
GAMG:  Solving for p, Initial residual = 0.006739255, Final residual = 0.0002095922, No Iterations 2
GAMG:  Solving for p, Initial residual = 0.001466355, Final residual = 0.0001338253, No Iterations 1
time step continuity errors : sum local = 2.395228e-05, global = -1.011088e-06, cumulative = -2.320373e-05
smoothSolver:  Solving for epsilon, Initial residual = 0.0048056, Final residual = 0.0003023208, No Iterations 3
smoothSolver:  Solving for k, Initial residual = 0.01072788, Final residual = 0.0009468955, No Iterations 3
ExecutionTime = 12.91 s  ClockTime = 29 s

Time = 46

smoothSolver:  Solving for Ux, Initial residual = 0.002330836, Final residual = 0.0001261151, No Iterations 4
smoothSolver:  Solving for Uy, Initial residual = 0.007086653, Final residual = 0.0004006905, No Iterations 4
smoothSolver:  Solving for Uz, Initial residual = 0.004157094, Final residual = 0.0002122755, No Iterations 4
GAMG:  Solving for p, Initial residual = 0.03390682, Final residual = 0.001257949, No Iterations 2
GAMG:  Solving for p, Initial residual = 0.006459364, Final residual = 0.0002018825, No Iterations 2
GAMG:  Solving for p, Initial residual = 0.00141363, Final residual = 0.000129795, No Iterations 1
time step continuity errors : sum local = 2.330573e-05, global = -8.065467e-07, cumulative = -2.401027e-05
smoothSolver:  Solving for epsilon, Initial residual = 0.004684783, Final residual = 0.0002919522, No Iterations 3
smoothSolver:  Solving for k, Initial residual = 0.01035314, Final residual = 0.0009077679, No Iterations 3
ExecutionTime = 13.17 s  ClockTime = 29 s

Time = 47

smoothSolver:  Solving for Ux, Initial residual = 0.002239654, Final residual = 0.0001210412, No Iterations 4
smoothSolver:  Solving for Uy, Initial residual = 0.006741049, Final residual = 0.0003807189, No Iterations 4
smoothSolver:  Solving for Uz, Initial residual = 0.003976282, Final residual = 0.0002043597, No Iterations 4
GAMG:  Solving for p, Initial residual = 0.03288119, Final residual = 0.001200663, No Iterations 2
GAMG:  Solving for p, Initial residual = 0.00621505, Final residual = 0.0001954686, No Iterations 2
GAMG:  Solving for p, Initial residual = 0.001373683, Final residual = 0.000129214, No Iterations 1
time step continuity errors : sum local = 2.328083e-05, global = -9.330652e-07, cumulative = -2.494334e-05
smoothSolver:  Solving for epsilon, Initial residual = 0.004550335, Final residual = 0.0002808859, No Iterations 3
smoothSolver:  Solving for k, Initial residual = 0.009964368, Final residual = 0.0008683194, No Iterations 3
ExecutionTime = 13.44 s  ClockTime = 30 s

Time = 48

smoothSolver:  Solving for Ux, Initial residual = 0.002153837, Final residual = 0.0001161525, No Iterations 4
smoothSolver:  Solving for Uy, Initial residual = 0.006417939, Final residual = 0.0003619448, No Iterations 4
smoothSolver:  Solving for Uz, Initial residual = 0.003805696, Final residual = 0.0001969288, No Iterations 4
GAMG:  Solving for p, Initial residual = 0.0318645, Final residual = 0.001146169, No Iterations 2
GAMG:  Solving for p, Initial residual = 0.005971702, Final residual = 0.000187982, No Iterations 2
GAMG:  Solving for p, Initial residual = 0.001357063, Final residual = 0.0001283256, No Iterations 1
time step continuity errors : sum local = 2.320672e-05, global = -1.143825e-06, cumulative = -2.608716e-05
smoothSolver:  Solving for epsilon, Initial residual = 0.004404169, Final residual = 0.0002694528, No Iterations 3
smoothSolver:  Solving for k, Initial residual = 0.009565485, Final residual = 0.0008291096, No Iterations 3
ExecutionTime = 13.71 s  ClockTime = 30 s

Time = 49

smoothSolver:  Solving for Ux, Initial residual = 0.002073873, Final residual = 0.0001116588, No Iterations 4
smoothSolver:  Solving for Uy, Initial residual = 0.006110284, Final residual = 0.000343505, No Iterations 4
smoothSolver:  Solving for Uz, Initial residual = 0.003653449, Final residual = 0.0001903533, No Iterations 4
GAMG:  Solving for p, Initial residual = 0.03080061, Final residual = 0.001097261, No Iterations 2
GAMG:  Solving for p, Initial residual = 0.005758028, Final residual = 0.0001804836, No Iterations 2
GAMG:  Solving for p, Initial residual = 0.001321875, Final residual = 0.000122267, No Iterations 1
time step continuity errors : sum local = 2.218855e-05, global = -1.172096e-06, cumulative = -2.725926e-05
smoothSolver:  Solving for epsilon, Initial residual = 0.004250452, Final residual = 0.0002581748, No Iterations 3
smoothSolver:  Solving for k, Initial residual = 0.009159784, Final residual = 0.0007909796, No Iterations 3
ExecutionTime = 13.98 s  ClockTime = 31 s

Time = 50

smoothSolver:  Solving for Ux, Initial residual = 0.001995272, Final residual = 0.0001072519, No Iterations 4
smoothSolver:  Solving for Uy, Initial residual = 0.005816715, Final residual = 0.0003257521, No Iterations 4
smoothSolver:  Solving for Uz, Initial residual = 0.003528159, Final residual = 0.0001845346, No Iterations 4
GAMG:  Solving for p, Initial residual = 0.0298261, Final residual = 0.001054573, No Iterations 2
GAMG:  Solving for p, Initial residual = 0.005596502, Final residual = 0.0005566637, No Iterations 1
GAMG:  Solving for p, Initial residual = 0.001410464, Final residual = 6.856062e-05, No Iterations 2
time step continuity errors : sum local = 1.247867e-05, global = -9.376646e-07, cumulative = -2.819692e-05
smoothSolver:  Solving for epsilon, Initial residual = 0.004090585, Final residual = 0.0002469347, No Iterations 3
smoothSolver:  Solving for k, Initial residual = 0.008757473, Final residual = 0.0007542291, No Iterations 3
ExecutionTime = 14.22 s  ClockTime = 31 s

Time = 51

smoothSolver:  Solving for Ux, Initial residual = 0.001918529, Final residual = 0.0001028262, No Iterations 4
smoothSolver:  Solving for Uy, Initial residual = 0.005548815, Final residual = 0.0003092548, No Iterations 4
smoothSolver:  Solving for Uz, Initial residual = 0.003414723, Final residual = 0.0001795737, No Iterations 4
GAMG:  Solving for p, Initial residual = 0.02889539, Final residual = 0.001015526, No Iterations 2
GAMG:  Solving for p, Initial residual = 0.005353603, Final residual = 0.0005254768, No Iterations 1
GAMG:  Solving for p, Initial residual = 0.001340627, Final residual = 6.626404e-05, No Iterations 2
time step continuity errors : sum local = 1.209323e-05, global = -3.032996e-07, cumulative = -2.850022e-05
smoothSolver:  Solving for epsilon, Initial residual = 0.003928316, Final residual = 0.0002358581, No Iterations 3
smoothSolver:  Solving for k, Initial residual = 0.008359516, Final residual = 0.0007191115, No Iterations 3
ExecutionTime = 14.47 s  ClockTime = 32 s

Time = 52

smoothSolver:  Solving for Ux, Initial residual = 0.001843228, Final residual = 9.845014e-05, No Iterations 4
smoothSolver:  Solving for Uy, Initial residual = 0.005295671, Final residual = 0.000293984, No Iterations 4
smoothSolver:  Solving for Uz, Initial residual = 0.003316648, Final residual = 0.0001754795, No Iterations 4
GAMG:  Solving for p, Initial residual = 0.02793266, Final residual = 0.0009829543, No Iterations 2
GAMG:  Solving for p, Initial residual = 0.005152526, Final residual = 0.0004992099, No Iterations 1
GAMG:  Solving for p, Initial residual = 0.001292555, Final residual = 6.40375e-05, No Iterations 2
time step continuity errors : sum local = 1.171493e-05, global = 5.449326e-07, cumulative = -2.795529e-05
smoothSolver:  Solving for epsilon, Initial residual = 0.003765679, Final residual = 0.0002252846, No Iterations 3
smoothSolver:  Solving for k, Initial residual = 0.007962767, Final residual = 0.0006857281, No Iterations 3
ExecutionTime = 14.77 s  ClockTime = 33 s

Time = 53

smoothSolver:  Solving for Ux, Initial residual = 0.001771353, Final residual = 9.42035e-05, No Iterations 4
smoothSolver:  Solving for Uy, Initial residual = 0.005051667, Final residual = 0.0002796484, No Iterations 4
smoothSolver:  Solving for Uz, Initial residual = 0.003226802, Final residual = 0.0001719917, No Iterations 4
GAMG:  Solving for p, Initial residual = 0.02701016, Final residual = 0.0009273976, No Iterations 2
GAMG:  Solving for p, Initial residual = 0.00492519, Final residual = 0.0004540992, No Iterations 1
GAMG:  Solving for p, Initial residual = 0.001280194, Final residual = 4.500188e-05, No Iterations 2
time step continuity errors : sum local = 8.255039e-06, global = 1.760061e-07, cumulative = -2.777929e-05
smoothSolver:  Solving for epsilon, Initial residual = 0.003607162, Final residual = 0.0002151965, No Iterations 3
smoothSolver:  Solving for k, Initial residual = 0.00757895, Final residual = 0.0006539921, No Iterations 3
ExecutionTime = 15.03 s  ClockTime = 33 s

Time = 54

smoothSolver:  Solving for Ux, Initial residual = 0.001703814, Final residual = 9.013463e-05, No Iterations 4
smoothSolver:  Solving for Uy, Initial residual = 0.004823691, Final residual = 0.0002664771, No Iterations 4
smoothSolver:  Solving for Uz, Initial residual = 0.003150618, Final residual = 0.0001689878, No Iterations 4
GAMG:  Solving for p, Initial residual = 0.0261394, Final residual = 0.0008923409, No Iterations 2
GAMG:  Solving for p, Initial residual = 0.004721516, Final residual = 0.0004371694, No Iterations 1
GAMG:  Solving for p, Initial residual = 0.001221392, Final residual = 4.257102e-05, No Iterations 2
time step continuity errors : sum local = 7.829101e-06, global = 1.623444e-07, cumulative = -2.761694e-05
smoothSolver:  Solving for epsilon, Initial residual = 0.003457392, Final residual = 0.0002058429, No Iterations 3
smoothSolver:  Solving for k, Initial residual = 0.00721918, Final residual = 0.0006241811, No Iterations 3
ExecutionTime = 15.28 s  ClockTime = 34 s

Time = 55

smoothSolver:  Solving for Ux, Initial residual = 0.001639746, Final residual = 8.638986e-05, No Iterations 4
smoothSolver:  Solving for Uy, Initial residual = 0.004614693, Final residual = 0.0002544532, No Iterations 4
smoothSolver:  Solving for Uz, Initial residual = 0.00308168, Final residual = 0.0001659683, No Iterations 4
GAMG:  Solving for p, Initial residual = 0.02525267, Final residual = 0.0008561862, No Iterations 2
GAMG:  Solving for p, Initial residual = 0.004504211, Final residual = 0.000420665, No Iterations 1
GAMG:  Solving for p, Initial residual = 0.001186669, Final residual = 4.129465e-05, No Iterations 2
time step continuity errors : sum local = 7.613504e-06, global = 1.6307e-07, cumulative = -2.745387e-05
smoothSolver:  Solving for epsilon, Initial residual = 0.003311791, Final residual = 0.0001971139, No Iterations 3
smoothSolver:  Solving for k, Initial residual = 0.006878738, Final residual = 0.0005959904, No Iterations 3
ExecutionTime = 15.57 s  ClockTime = 34 s

Time = 56

smoothSolver:  Solving for Ux, Initial residual = 0.001578717, Final residual = 8.301281e-05, No Iterations 4
smoothSolver:  Solving for Uy, Initial residual = 0.004423268, Final residual = 0.0002432989, No Iterations 4
smoothSolver:  Solving for Uz, Initial residual = 0.003017746, Final residual = 0.0001629854, No Iterations 4
GAMG:  Solving for p, Initial residual = 0.02438089, Final residual = 0.0008257944, No Iterations 2
GAMG:  Solving for p, Initial residual = 0.004334928, Final residual = 0.0004028171, No Iterations 1
GAMG:  Solving for p, Initial residual = 0.001131929, Final residual = 3.934657e-05, No Iterations 2
time step continuity errors : sum local = 7.271763e-06, global = 1.521981e-07, cumulative = -2.730167e-05
smoothSolver:  Solving for epsilon, Initial residual = 0.003172404, Final residual = 0.0001889197, No Iterations 3
smoothSolver:  Solving for k, Initial residual = 0.006556492, Final residual = 0.0005696823, No Iterations 3
ExecutionTime = 15.83 s  ClockTime = 35 s

Time = 57

smoothSolver:  Solving for Ux, Initial residual = 0.001521628, Final residual = 8.000858e-05, No Iterations 4
smoothSolver:  Solving for Uy, Initial residual = 0.004246506, Final residual = 0.0002332425, No Iterations 4
smoothSolver:  Solving for Uz, Initial residual = 0.002964008, Final residual = 0.0001601884, No Iterations 4
GAMG:  Solving for p, Initial residual = 0.02345801, Final residual = 0.0008010834, No Iterations 2
GAMG:  Solving for p, Initial residual = 0.004152568, Final residual = 0.0003835827, No Iterations 1
GAMG:  Solving for p, Initial residual = 0.001096352, Final residual = 3.78799e-05, No Iterations 2
time step continuity errors : sum local = 7.015263e-06, global = 1.446068e-07, cumulative = -2.715707e-05
smoothSolver:  Solving for epsilon, Initial residual = 0.003044079, Final residual = 0.0001811949, No Iterations 3
smoothSolver:  Solving for k, Initial residual = 0.006252987, Final residual = 0.0005449052, No Iterations 3
ExecutionTime = 16.17 s  ClockTime = 35 s

Time = 58

smoothSolver:  Solving for Ux, Initial residual = 0.001469769, Final residual = 7.734071e-05, No Iterations 4
smoothSolver:  Solving for Uy, Initial residual = 0.004088454, Final residual = 0.0002243211, No Iterations 4
smoothSolver:  Solving for Uz, Initial residual = 0.002910835, Final residual = 0.0001576152, No Iterations 4
GAMG:  Solving for p, Initial residual = 0.02260999, Final residual = 0.0007759316, No Iterations 2
GAMG:  Solving for p, Initial residual = 0.003944985, Final residual = 0.000366208, No Iterations 1
GAMG:  Solving for p, Initial residual = 0.001051302, Final residual = 3.617668e-05, No Iterations 2
time step continuity errors : sum local = 6.712399e-06, global = 1.427669e-07, cumulative = -2.70143e-05
smoothSolver:  Solving for epsilon, Initial residual = 0.002925631, Final residual = 0.0001739666, No Iterations 3
smoothSolver:  Solving for k, Initial residual = 0.005968561, Final residual = 0.0005215685, No Iterations 3
ExecutionTime = 16.54 s  ClockTime = 36 s

Time = 59

smoothSolver:  Solving for Ux, Initial residual = 0.00142049, Final residual = 7.475212e-05, No Iterations 4
smoothSolver:  Solving for Uy, Initial residual = 0.003953425, Final residual = 0.0002170572, No Iterations 4
smoothSolver:  Solving for Uz, Initial residual = 0.002857242, Final residual = 0.0001552203, No Iterations 4
GAMG:  Solving for p, Initial residual = 0.02182199, Final residual = 0.0007484699, No Iterations 2
GAMG:  Solving for p, Initial residual = 0.003795341, Final residual = 0.0003515987, No Iterations 1
GAMG:  Solving for p, Initial residual = 0.001012527, Final residual = 3.457241e-05, No Iterations 2
time step continuity errors : sum local = 6.425423e-06, global = 1.499864e-07, cumulative = -2.686431e-05
smoothSolver:  Solving for epsilon, Initial residual = 0.00281368, Final residual = 0.0001671856, No Iterations 3
smoothSolver:  Solving for k, Initial residual = 0.005704812, Final residual = 0.0004998298, No Iterations 3
ExecutionTime = 16.82 s  ClockTime = 37 s

Time = 60

smoothSolver:  Solving for Ux, Initial residual = 0.001372793, Final residual = 7.229918e-05, No Iterations 4
smoothSolver:  Solving for Uy, Initial residual = 0.003829812, Final residual = 0.0002107128, No Iterations 4
smoothSolver:  Solving for Uz, Initial residual = 0.002802735, Final residual = 0.0001527053, No Iterations 4
GAMG:  Solving for p, Initial residual = 0.02106385, Final residual = 0.0007206099, No Iterations 2
GAMG:  Solving for p, Initial residual = 0.003667095, Final residual = 0.0003374983, No Iterations 1
GAMG:  Solving for p, Initial residual = 0.0009818268, Final residual = 3.329996e-05, No Iterations 2
time step continuity errors : sum local = 6.197956e-06, global = 1.579044e-07, cumulative = -2.670641e-05
smoothSolver:  Solving for epsilon, Initial residual = 0.002707104, Final residual = 0.0001607036, No Iterations 3
smoothSolver:  Solving for k, Initial residual = 0.005457519, Final residual = 0.0004793128, No Iterations 3
ExecutionTime = 17.14 s  ClockTime = 38 s

Time = 61

smoothSolver:  Solving for Ux, Initial residual = 0.001325694, Final residual = 6.988041e-05, No Iterations 4
smoothSolver:  Solving for Uy, Initial residual = 0.003717985, Final residual = 0.0002049473, No Iterations 4
smoothSolver:  Solving for Uz, Initial residual = 0.002743357, Final residual = 0.0001498405, No Iterations 4
GAMG:  Solving for p, Initial residual = 0.02035368, Final residual = 0.0006961487, No Iterations 2
GAMG:  Solving for p, Initial residual = 0.003551699, Final residual = 0.0003270252, No Iterations 1
GAMG:  Solving for p, Initial residual = 0.0009413293, Final residual = 3.20231e-05, No Iterations 2
time step continuity errors : sum local = 5.96827e-06, global = 1.622723e-07, cumulative = -2.654414e-05
smoothSolver:  Solving for epsilon, Initial residual = 0.002604461, Final residual = 0.0001544055, No Iterations 3
smoothSolver:  Solving for k, Initial residual = 0.005221575, Final residual = 0.0004593485, No Iterations 3
ExecutionTime = 17.46 s  ClockTime = 38 s

Time = 62

smoothSolver:  Solving for Ux, Initial residual = 0.001278728, Final residual = 6.749388e-05, No Iterations 4
smoothSolver:  Solving for Uy, Initial residual = 0.003617737, Final residual = 0.0001995725, No Iterations 4
smoothSolver:  Solving for Uz, Initial residual = 0.002682472, Final residual = 0.0001468104, No Iterations 4
GAMG:  Solving for p, Initial residual = 0.01966305, Final residual = 0.0006778424, No Iterations 2
GAMG:  Solving for p, Initial residual = 0.003459256, Final residual = 0.0003195, No Iterations 1
GAMG:  Solving for p, Initial residual = 0.0009138249, Final residual = 3.136287e-05, No Iterations 2
time step continuity errors : sum local = 5.851869e-06, global = 1.574786e-07, cumulative = -2.638666e-05
smoothSolver:  Solving for epsilon, Initial residual = 0.00250341, Final residual = 0.0001482993, No Iterations 3
smoothSolver:  Solving for k, Initial residual = 0.004998587, Final residual = 0.0004400509, No Iterations 3
ExecutionTime = 17.74 s  ClockTime = 39 s

Time = 63

smoothSolver:  Solving for Ux, Initial residual = 0.001229669, Final residual = 6.510442e-05, No Iterations 4
smoothSolver:  Solving for Uy, Initial residual = 0.00353221, Final residual = 0.0001946359, No Iterations 4
smoothSolver:  Solving for Uz, Initial residual = 0.002628513, Final residual = 0.0001440047, No Iterations 4
GAMG:  Solving for p, Initial residual = 0.01899965, Final residual = 0.000660626, No Iterations 2
GAMG:  Solving for p, Initial residual = 0.003360488, Final residual = 0.0003097629, No Iterations 1
GAMG:  Solving for p, Initial residual = 0.0008820998, Final residual = 3.050742e-05, No Iterations 2
time step continuity errors : sum local = 5.697554e-06, global = 1.515039e-07, cumulative = -2.623515e-05
smoothSolver:  Solving for epsilon, Initial residual = 0.002411939, Final residual = 0.0001424216, No Iterations 3
smoothSolver:  Solving for k, Initial residual = 0.004789991, Final residual = 0.000421596, No Iterations 3
ExecutionTime = 18.02 s  ClockTime = 39 s

Time = 64

smoothSolver:  Solving for Ux, Initial residual = 0.001183108, Final residual = 6.270268e-05, No Iterations 4
smoothSolver:  Solving for Uy, Initial residual = 0.00345509, Final residual = 0.0001906551, No Iterations 4
smoothSolver:  Solving for Uz, Initial residual = 0.002576835, Final residual = 0.0001412162, No Iterations 4
GAMG:  Solving for p, Initial residual = 0.0183043, Final residual = 0.0006397812, No Iterations 2
GAMG:  Solving for p, Initial residual = 0.003263281, Final residual = 0.000298991, No Iterations 1
GAMG:  Solving for p, Initial residual = 0.0008524645, Final residual = 2.966548e-05, No Iterations 2
time step continuity errors : sum local = 5.544928e-06, global = 1.558126e-07, cumulative = -2.607934e-05
smoothSolver:  Solving for epsilon, Initial residual = 0.002322707, Final residual = 0.0001368394, No Iterations 3
smoothSolver:  Solving for k, Initial residual = 0.00459589, Final residual = 0.0004041215, No Iterations 3
ExecutionTime = 18.3 s  ClockTime = 40 s

Time = 65

smoothSolver:  Solving for Ux, Initial residual = 0.001136423, Final residual = 6.03468e-05, No Iterations 4
smoothSolver:  Solving for Uy, Initial residual = 0.003381892, Final residual = 0.0001868746, No Iterations 4
smoothSolver:  Solving for Uz, Initial residual = 0.002521316, Final residual = 0.0001383037, No Iterations 4
GAMG:  Solving for p, Initial residual = 0.01770371, Final residual = 0.0006166168, No Iterations 2
GAMG:  Solving for p, Initial residual = 0.003156077, Final residual = 0.0002859021, No Iterations 1
GAMG:  Solving for p, Initial residual = 0.0008240955, Final residual = 2.845866e-05, No Iterations 2
time step continuity errors : sum local = 5.322985e-06, global = 1.611305e-07, cumulative = -2.591821e-05
smoothSolver:  Solving for epsilon, Initial residual = 0.00223627, Final residual = 0.0001315313, No Iterations 3
smoothSolver:  Solving for k, Initial residual = 0.004411141, Final residual = 0.0003874954, No Iterations 3
ExecutionTime = 18.56 s  ClockTime = 41 s

Time = 66

smoothSolver:  Solving for Ux, Initial residual = 0.001090327, Final residual = 5.809613e-05, No Iterations 4
smoothSolver:  Solving for Uy, Initial residual = 0.003310963, Final residual = 0.0001832136, No Iterations 4
smoothSolver:  Solving for Uz, Initial residual = 0.002460193, Final residual = 0.0001351293, No Iterations 4
GAMG:  Solving for p, Initial residual = 0.01708601, Final residual = 0.0005931541, No Iterations 2
GAMG:  Solving for p, Initial residual = 0.003020957, Final residual = 0.0002721509, No Iterations 1
GAMG:  Solving for p, Initial residual = 0.0007873127, Final residual = 2.692686e-05, No Iterations 2
time step continuity errors : sum local = 5.039378e-06, global = 1.536941e-07, cumulative = -2.576452e-05
smoothSolver:  Solving for epsilon, Initial residual = 0.002151313, Final residual = 0.0001264506, No Iterations 3
smoothSolver:  Solving for k, Initial residual = 0.004234506, Final residual = 0.0003717795, No Iterations 3
ExecutionTime = 18.84 s  ClockTime = 41 s

Time = 67

smoothSolver:  Solving for Ux, Initial residual = 0.00104628, Final residual = 5.60232e-05, No Iterations 4
smoothSolver:  Solving for Uy, Initial residual = 0.0032408, Final residual = 0.0001799082, No Iterations 4
smoothSolver:  Solving for Uz, Initial residual = 0.002395469, Final residual = 0.0001317302, No Iterations 4
GAMG:  Solving for p, Initial residual = 0.01649149, Final residual = 0.0005749766, No Iterations 2
GAMG:  Solving for p, Initial residual = 0.002904211, Final residual = 0.0002610199, No Iterations 1
GAMG:  Solving for p, Initial residual = 0.0007480405, Final residual = 2.534541e-05, No Iterations 2
time step continuity errors : sum local = 4.745546e-06, global = 1.397015e-07, cumulative = -2.562482e-05
smoothSolver:  Solving for epsilon, Initial residual = 0.002069881, Final residual = 0.0001215923, No Iterations 3
smoothSolver:  Solving for k, Initial residual = 0.004068461, Final residual = 0.0003568996, No Iterations 3
ExecutionTime = 19.11 s  ClockTime = 42 s

Time = 68

smoothSolver:  Solving for Ux, Initial residual = 0.001004799, Final residual = 5.406337e-05, No Iterations 4
smoothSolver:  Solving for Uy, Initial residual = 0.00317187, Final residual = 0.0001766662, No Iterations 4
smoothSolver:  Solving for Uz, Initial residual = 0.002326192, Final residual = 0.000128236, No Iterations 4
GAMG:  Solving for p, Initial residual = 0.01599412, Final residual = 0.0005586472, No Iterations 2
GAMG:  Solving for p, Initial residual = 0.00279853, Final residual = 0.0002530924, No Iterations 1
GAMG:  Solving for p, Initial residual = 0.000717187, Final residual = 2.43324e-05, No Iterations 2
time step continuity errors : sum local = 4.557238e-06, global = 1.332372e-07, cumulative = -2.549158e-05
smoothSolver:  Solving for epsilon, Initial residual = 0.001989553, Final residual = 0.0001168587, No Iterations 3
smoothSolver:  Solving for k, Initial residual = 0.003910784, Final residual = 0.0003426692, No Iterations 3
ExecutionTime = 19.39 s  ClockTime = 42 s

Time = 69

smoothSolver:  Solving for Ux, Initial residual = 0.0009649592, Final residual = 5.209136e-05, No Iterations 4
smoothSolver:  Solving for Uy, Initial residual = 0.003100695, Final residual = 0.0001734825, No Iterations 4
smoothSolver:  Solving for Uz, Initial residual = 0.002256958, Final residual = 0.0001248507, No Iterations 4
GAMG:  Solving for p, Initial residual = 0.01553177, Final residual = 0.0005403682, No Iterations 2
GAMG:  Solving for p, Initial residual = 0.002688161, Final residual = 0.0002445294, No Iterations 1
GAMG:  Solving for p, Initial residual = 0.0006857559, Final residual = 2.365948e-05, No Iterations 2
time step continuity errors : sum local = 4.431901e-06, global = 1.370208e-07, cumulative = -2.535456e-05
smoothSolver:  Solving for epsilon, Initial residual = 0.001913398, Final residual = 0.0001122401, No Iterations 3
smoothSolver:  Solving for k, Initial residual = 0.00376194, Final residual = 0.0003291704, No Iterations 3
ExecutionTime = 19.65 s  ClockTime = 43 s

Time = 70

smoothSolver:  Solving for Ux, Initial residual = 0.0009260217, Final residual = 5.017816e-05, No Iterations 4
smoothSolver:  Solving for Uy, Initial residual = 0.003035444, Final residual = 0.0001703781, No Iterations 4
smoothSolver:  Solving for Uz, Initial residual = 0.002188558, Final residual = 0.0001214375, No Iterations 4
GAMG:  Solving for p, Initial residual = 0.01501706, Final residual = 0.0005221213, No Iterations 2
GAMG:  Solving for p, Initial residual = 0.002562842, Final residual = 0.0002347321, No Iterations 1
GAMG:  Solving for p, Initial residual = 0.000653116, Final residual = 2.30227e-05, No Iterations 2
time step continuity errors : sum local = 4.312571e-06, global = 1.467408e-07, cumulative = -2.520782e-05
smoothSolver:  Solving for epsilon, Initial residual = 0.001839543, Final residual = 0.0001077222, No Iterations 3
smoothSolver:  Solving for k, Initial residual = 0.003622475, Final residual = 0.0003164038, No Iterations 3
ExecutionTime = 19.93 s  ClockTime = 44 s

Time = 71

smoothSolver:  Solving for Ux, Initial residual = 0.0008892435, Final residual = 4.841629e-05, No Iterations 4
smoothSolver:  Solving for Uy, Initial residual = 0.002970926, Final residual = 0.0001672316, No Iterations 4
smoothSolver:  Solving for Uz, Initial residual = 0.002120034, Final residual = 0.0001179281, No Iterations 4
GAMG:  Solving for p, Initial residual = 0.0145395, Final residual = 0.0005043077, No Iterations 2
GAMG:  Solving for p, Initial residual = 0.002472366, Final residual = 0.000225279, No Iterations 1
GAMG:  Solving for p, Initial residual = 0.0006245016, Final residual = 2.225068e-05, No Iterations 2
time step continuity errors : sum local = 4.167364e-06, global = 1.560703e-07, cumulative = -2.505175e-05
smoothSolver:  Solving for epsilon, Initial residual = 0.001767562, Final residual = 0.0001033482, No Iterations 3
smoothSolver:  Solving for k, Initial residual = 0.003486324, Final residual = 0.0003042444, No Iterations 3
ExecutionTime = 20.19 s  ClockTime = 44 s

Time = 72

smoothSolver:  Solving for Ux, Initial residual = 0.0008539769, Final residual = 4.679338e-05, No Iterations 4
smoothSolver:  Solving for Uy, Initial residual = 0.002901048, Final residual = 0.0001637423, No Iterations 4
smoothSolver:  Solving for Uz, Initial residual = 0.002050241, Final residual = 0.0001143172, No Iterations 4
GAMG:  Solving for p, Initial residual = 0.014092, Final residual = 0.0004872901, No Iterations 2
GAMG:  Solving for p, Initial residual = 0.002399587, Final residual = 0.0002170731, No Iterations 1
GAMG:  Solving for p, Initial residual = 0.0006014284, Final residual = 2.112048e-05, No Iterations 2
time step continuity errors : sum local = 3.954902e-06, global = 1.586878e-07, cumulative = -2.489306e-05
smoothSolver:  Solving for epsilon, Initial residual = 0.001698027, Final residual = 9.917449e-05, No Iterations 3
smoothSolver:  Solving for k, Initial residual = 0.003357261, Final residual = 0.0002927952, No Iterations 3
ExecutionTime = 20.45 s  ClockTime = 45 s

Time = 73

smoothSolver:  Solving for Ux, Initial residual = 0.0008206809, Final residual = 4.526514e-05, No Iterations 4
smoothSolver:  Solving for Uy, Initial residual = 0.002828788, Final residual = 0.0001600862, No Iterations 4
smoothSolver:  Solving for Uz, Initial residual = 0.001978741, Final residual = 0.0001105344, No Iterations 4
GAMG:  Solving for p, Initial residual = 0.01366415, Final residual = 0.0004687439, No Iterations 2
GAMG:  Solving for p, Initial residual = 0.002308612, Final residual = 0.0002078361, No Iterations 1
GAMG:  Solving for p, Initial residual = 0.0005745603, Final residual = 1.975393e-05, No Iterations 2
time step continuity errors : sum local = 3.698103e-06, global = 1.539823e-07, cumulative = -2.473908e-05
smoothSolver:  Solving for epsilon, Initial residual = 0.001628989, Final residual = 9.509087e-05, No Iterations 3
smoothSolver:  Solving for k, Initial residual = 0.003233989, Final residual = 0.000281774, No Iterations 3
ExecutionTime = 20.72 s  ClockTime = 45 s

Time = 74

smoothSolver:  Solving for Ux, Initial residual = 0.000788417, Final residual = 4.378774e-05, No Iterations 4
smoothSolver:  Solving for Uy, Initial residual = 0.002754946, Final residual = 0.0001562616, No Iterations 4
smoothSolver:  Solving for Uz, Initial residual = 0.001904798, Final residual = 0.0001066412, No Iterations 4
GAMG:  Solving for p, Initial residual = 0.01327101, Final residual = 0.0004503006, No Iterations 2
GAMG:  Solving for p, Initial residual = 0.002217444, Final residual = 0.0001988891, No Iterations 1
GAMG:  Solving for p, Initial residual = 0.000547842, Final residual = 1.859179e-05, No Iterations 2
time step continuity errors : sum local = 3.479522e-06, global = 1.480841e-07, cumulative = -2.459099e-05
smoothSolver:  Solving for epsilon, Initial residual = 0.001560184, Final residual = 9.111455e-05, No Iterations 3
smoothSolver:  Solving for k, Initial residual = 0.003112627, Final residual = 0.0002710933, No Iterations 3
ExecutionTime = 20.99 s  ClockTime = 46 s

Time = 75

smoothSolver:  Solving for Ux, Initial residual = 0.0007579333, Final residual = 4.241867e-05, No Iterations 4
smoothSolver:  Solving for Uy, Initial residual = 0.002683501, Final residual = 0.0001524186, No Iterations 4
smoothSolver:  Solving for Uz, Initial residual = 0.001828368, Final residual = 0.0001025768, No Iterations 4
GAMG:  Solving for p, Initial residual = 0.01284162, Final residual = 0.0004314951, No Iterations 2
GAMG:  Solving for p, Initial residual = 0.002127511, Final residual = 0.0001907709, No Iterations 1
GAMG:  Solving for p, Initial residual = 0.0005188731, Final residual = 1.758954e-05, No Iterations 2
time step continuity errors : sum local = 3.290887e-06, global = 1.448226e-07, cumulative = -2.444617e-05
smoothSolver:  Solving for epsilon, Initial residual = 0.001493855, Final residual = 8.740344e-05, No Iterations 3
smoothSolver:  Solving for k, Initial residual = 0.002994016, Final residual = 0.0002609578, No Iterations 3
ExecutionTime = 21.25 s  ClockTime = 46 s

Time = 76

smoothSolver:  Solving for Ux, Initial residual = 0.0007303919, Final residual = 4.12485e-05, No Iterations 4
smoothSolver:  Solving for Uy, Initial residual = 0.002609074, Final residual = 0.0001484828, No Iterations 4
smoothSolver:  Solving for Uz, Initial residual = 0.001748944, Final residual = 9.841923e-05, No Iterations 4
GAMG:  Solving for p, Initial residual = 0.01244287, Final residual = 0.0004157902, No Iterations 2
GAMG:  Solving for p, Initial residual = 0.00205554, Final residual = 0.0001842425, No Iterations 1
GAMG:  Solving for p, Initial residual = 0.00049763, Final residual = 1.67455e-05, No Iterations 2
time step continuity errors : sum local = 3.132199e-06, global = 1.420864e-07, cumulative = -2.430408e-05
smoothSolver:  Solving for epsilon, Initial residual = 0.001431542, Final residual = 8.386579e-05, No Iterations 3
smoothSolver:  Solving for k, Initial residual = 0.002882978, Final residual = 0.0002512954, No Iterations 3
ExecutionTime = 21.52 s  ClockTime = 47 s

Time = 77

smoothSolver:  Solving for Ux, Initial residual = 0.0007063431, Final residual = 4.02046e-05, No Iterations 4
smoothSolver:  Solving for Uy, Initial residual = 0.002531325, Final residual = 0.000144398, No Iterations 4
smoothSolver:  Solving for Uz, Initial residual = 0.00167289, Final residual = 9.438619e-05, No Iterations 4
GAMG:  Solving for p, Initial residual = 0.01203773, Final residual = 0.0004018918, No Iterations 2
GAMG:  Solving for p, Initial residual = 0.002000336, Final residual = 0.0001788494, No Iterations 1
GAMG:  Solving for p, Initial residual = 0.0004773709, Final residual = 1.603504e-05, No Iterations 2
time step continuity errors : sum local = 2.998732e-06, global = 1.404366e-07, cumulative = -2.416365e-05
smoothSolver:  Solving for epsilon, Initial residual = 0.001371692, Final residual = 8.048599e-05, No Iterations 3
smoothSolver:  Solving for k, Initial residual = 0.002776414, Final residual = 0.0002419897, No Iterations 3
ExecutionTime = 21.78 s  ClockTime = 47 s

Time = 78

smoothSolver:  Solving for Ux, Initial residual = 0.0006845491, Final residual = 3.918823e-05, No Iterations 4
smoothSolver:  Solving for Uy, Initial residual = 0.0024523, Final residual = 0.0001404441, No Iterations 4
smoothSolver:  Solving for Uz, Initial residual = 0.001600181, Final residual = 9.047506e-05, No Iterations 4
GAMG:  Solving for p, Initial residual = 0.01162893, Final residual = 0.000387967, No Iterations 2
GAMG:  Solving for p, Initial residual = 0.001939611, Final residual = 0.0001736656, No Iterations 1
GAMG:  Solving for p, Initial residual = 0.0004591648, Final residual = 1.554625e-05, No Iterations 2
[...]
time step continuity errors : sum local = 9.11397e-06, global = 5.881154e-08, cumulative = -5.735178e-05
smoothSolver:  Solving for epsilon, Initial residual = 0.00172758, Final residual = 9.466146e-05, No Iterations 3
smoothSolver:  Solving for k, Initial residual = 0.003534302, Final residual = 0.0002576013, No Iterations 3
ExecutionTime = 53.04 s  ClockTime = 114 s

Time = 181

smoothSolver:  Solving for Ux, Initial residual = 0.001659564, Final residual = 7.569094e-05, No Iterations 4
smoothSolver:  Solving for Uy, Initial residual = 0.005475172, Final residual = 0.0002743551, No Iterations 4
smoothSolver:  Solving for Uz, Initial residual = 0.002346444, Final residual = 0.0001113263, No Iterations 4
GAMG:  Solving for p, Initial residual = 0.02834374, Final residual = 0.000715589, No Iterations 2
GAMG:  Solving for p, Initial residual = 0.004818325, Final residual = 0.0004176028, No Iterations 1
GAMG:  Solving for p, Initial residual = 0.001095906, Final residual = 4.268785e-05, No Iterations 2
time step continuity errors : sum local = 9.386566e-06, global = 1.469554e-07, cumulative = -5.720483e-05
smoothSolver:  Solving for epsilon, Initial residual = 0.001725204, Final residual = 9.279824e-05, No Iterations 3
smoothSolver:  Solving for k, Initial residual = 0.003530815, Final residual = 0.0002537356, No Iterations 3
ExecutionTime = 53.34 s  ClockTime = 115 s

Time = 182

smoothSolver:  Solving for Ux, Initial residual = 0.001653908, Final residual = 7.562639e-05, No Iterations 4
smoothSolver:  Solving for Uy, Initial residual = 0.005346325, Final residual = 0.0002676869, No Iterations 4
smoothSolver:  Solving for Uz, Initial residual = 0.002339022, Final residual = 0.0001105017, No Iterations 4
GAMG:  Solving for p, Initial residual = 0.02843584, Final residual = 0.0007194798, No Iterations 2
GAMG:  Solving for p, Initial residual = 0.004953317, Final residual = 0.0004347836, No Iterations 1
GAMG:  Solving for p, Initial residual = 0.00109422, Final residual = 4.566682e-05, No Iterations 2
time step continuity errors : sum local = 1.002696e-05, global = -8.869572e-08, cumulative = -5.729352e-05
smoothSolver:  Solving for epsilon, Initial residual = 0.00172378, Final residual = 9.141371e-05, No Iterations 3
smoothSolver:  Solving for k, Initial residual = 0.003532525, Final residual = 0.0002510226, No Iterations 3
ExecutionTime = 53.66 s  ClockTime = 116 s

Time = 183

smoothSolver:  Solving for Ux, Initial residual = 0.001639306, Final residual = 7.533856e-05, No Iterations 4
smoothSolver:  Solving for Uy, Initial residual = 0.005242609, Final residual = 0.0002628888, No Iterations 4
smoothSolver:  Solving for Uz, Initial residual = 0.002334425, Final residual = 0.0001096263, No Iterations 4
GAMG:  Solving for p, Initial residual = 0.02849636, Final residual = 0.000745442, No Iterations 2
GAMG:  Solving for p, Initial residual = 0.004937299, Final residual = 0.0004495768, No Iterations 1
GAMG:  Solving for p, Initial residual = 0.00109972, Final residual = 4.550241e-05, No Iterations 2
time step continuity errors : sum local = 9.974355e-06, global = -1.002446e-06, cumulative = -5.829597e-05
smoothSolver:  Solving for epsilon, Initial residual = 0.001728151, Final residual = 9.052409e-05, No Iterations 3
smoothSolver:  Solving for k, Initial residual = 0.00354713, Final residual = 0.0002498072, No Iterations 3
ExecutionTime = 53.97 s  ClockTime = 116 s

Time = 184

smoothSolver:  Solving for Ux, Initial residual = 0.001626883, Final residual = 7.512892e-05, No Iterations 4
smoothSolver:  Solving for Uy, Initial residual = 0.005148991, Final residual = 0.0002580895, No Iterations 4
smoothSolver:  Solving for Uz, Initial residual = 0.002336761, Final residual = 0.0001089787, No Iterations 4
GAMG:  Solving for p, Initial residual = 0.02839582, Final residual = 0.000778432, No Iterations 2
GAMG:  Solving for p, Initial residual = 0.004871046, Final residual = 0.0004571758, No Iterations 1
GAMG:  Solving for p, Initial residual = 0.001105794, Final residual = 4.489461e-05, No Iterations 2
time step continuity errors : sum local = 9.825818e-06, global = -4.41988e-07, cumulative = -5.873796e-05
smoothSolver:  Solving for epsilon, Initial residual = 0.001732061, Final residual = 9.024533e-05, No Iterations 3
smoothSolver:  Solving for k, Initial residual = 0.003562846, Final residual = 0.0002499525, No Iterations 3
ExecutionTime = 54.29 s  ClockTime = 117 s

Time = 185

smoothSolver:  Solving for Ux, Initial residual = 0.001609844, Final residual = 7.473313e-05, No Iterations 4
smoothSolver:  Solving for Uy, Initial residual = 0.005049868, Final residual = 0.000252862, No Iterations 4
smoothSolver:  Solving for Uz, Initial residual = 0.00233812, Final residual = 0.0001089642, No Iterations 4
GAMG:  Solving for p, Initial residual = 0.02836176, Final residual = 0.0008031341, No Iterations 2
GAMG:  Solving for p, Initial residual = 0.004812301, Final residual = 0.0004627908, No Iterations 1
GAMG:  Solving for p, Initial residual = 0.001106697, Final residual = 4.616268e-05, No Iterations 2
time step continuity errors : sum local = 1.009389e-05, global = -4.488262e-07, cumulative = -5.918678e-05
smoothSolver:  Solving for epsilon, Initial residual = 0.001734051, Final residual = 9.055424e-05, No Iterations 3
smoothSolver:  Solving for k, Initial residual = 0.003577573, Final residual = 0.0002511718, No Iterations 3
ExecutionTime = 54.59 s  ClockTime = 118 s

Time = 186

smoothSolver:  Solving for Ux, Initial residual = 0.001590522, Final residual = 7.407851e-05, No Iterations 4
smoothSolver:  Solving for Uy, Initial residual = 0.004923485, Final residual = 0.0002455669, No Iterations 4
smoothSolver:  Solving for Uz, Initial residual = 0.002337204, Final residual = 0.000109405, No Iterations 4
GAMG:  Solving for p, Initial residual = 0.02803098, Final residual = 0.0007987185, No Iterations 2
GAMG:  Solving for p, Initial residual = 0.00474194, Final residual = 0.0004519338, No Iterations 1
GAMG:  Solving for p, Initial residual = 0.001099501, Final residual = 4.700567e-05, No Iterations 2
time step continuity errors : sum local = 1.027311e-05, global = -3.8593e-07, cumulative = -5.957271e-05
smoothSolver:  Solving for epsilon, Initial residual = 0.001734253, Final residual = 9.095048e-05, No Iterations 3
smoothSolver:  Solving for k, Initial residual = 0.003578014, Final residual = 0.0002531108, No Iterations 3
ExecutionTime = 54.84 s  ClockTime = 118 s

Time = 187

smoothSolver:  Solving for Ux, Initial residual = 0.001572265, Final residual = 7.341638e-05, No Iterations 4
smoothSolver:  Solving for Uy, Initial residual = 0.00479938, Final residual = 0.0002378716, No Iterations 4
smoothSolver:  Solving for Uz, Initial residual = 0.002323485, Final residual = 0.0001099112, No Iterations 4
GAMG:  Solving for p, Initial residual = 0.02738268, Final residual = 0.000771089, No Iterations 2
GAMG:  Solving for p, Initial residual = 0.004619173, Final residual = 0.0004283955, No Iterations 1
GAMG:  Solving for p, Initial residual = 0.001053458, Final residual = 4.530397e-05, No Iterations 2
time step continuity errors : sum local = 9.894885e-06, global = -1.029785e-06, cumulative = -6.06025e-05
smoothSolver:  Solving for epsilon, Initial residual = 0.001732046, Final residual = 9.126986e-05, No Iterations 3
smoothSolver:  Solving for k, Initial residual = 0.003572509, Final residual = 0.0002558198, No Iterations 3
ExecutionTime = 55.1 s  ClockTime = 119 s

Time = 188

smoothSolver:  Solving for Ux, Initial residual = 0.001553499, Final residual = 7.282819e-05, No Iterations 4
smoothSolver:  Solving for Uy, Initial residual = 0.004679491, Final residual = 0.0002302282, No Iterations 4
smoothSolver:  Solving for Uz, Initial residual = 0.002302261, Final residual = 0.0001101521, No Iterations 4
GAMG:  Solving for p, Initial residual = 0.02665475, Final residual = 0.0007396365, No Iterations 2
GAMG:  Solving for p, Initial residual = 0.004442182, Final residual = 0.0004038311, No Iterations 1
GAMG:  Solving for p, Initial residual = 0.001015076, Final residual = 4.144438e-05, No Iterations 2
time step continuity errors : sum local = 9.043401e-06, global = -1.14765e-06, cumulative = -6.175015e-05
smoothSolver:  Solving for epsilon, Initial residual = 0.001726685, Final residual = 9.165365e-05, No Iterations 3
smoothSolver:  Solving for k, Initial residual = 0.00356772, Final residual = 0.0002584116, No Iterations 3
ExecutionTime = 55.38 s  ClockTime = 119 s

Time = 189

smoothSolver:  Solving for Ux, Initial residual = 0.001529406, Final residual = 7.212216e-05, No Iterations 4
smoothSolver:  Solving for Uy, Initial residual = 0.004569242, Final residual = 0.0002234805, No Iterations 4
smoothSolver:  Solving for Uz, Initial residual = 0.002291836, Final residual = 0.000110001, No Iterations 4
GAMG:  Solving for p, Initial residual = 0.02583331, Final residual = 0.0007295376, No Iterations 2
GAMG:  Solving for p, Initial residual = 0.004207229, Final residual = 0.0003870813, No Iterations 1
GAMG:  Solving for p, Initial residual = 0.0009641137, Final residual = 3.725321e-05, No Iterations 2
time step continuity errors : sum local = 8.121687e-06, global = -4.72644e-07, cumulative = -6.222279e-05
smoothSolver:  Solving for epsilon, Initial residual = 0.00171888, Final residual = 9.189868e-05, No Iterations 3
smoothSolver:  Solving for k, Initial residual = 0.003559432, Final residual = 0.0002600323, No Iterations 3
ExecutionTime = 55.66 s  ClockTime = 120 s

Time = 190

smoothSolver:  Solving for Ux, Initial residual = 0.001500096, Final residual = 7.112319e-05, No Iterations 4
smoothSolver:  Solving for Uy, Initial residual = 0.00447007, Final residual = 0.0002177667, No Iterations 4
smoothSolver:  Solving for Uz, Initial residual = 0.002284389, Final residual = 0.0001097002, No Iterations 4
GAMG:  Solving for p, Initial residual = 0.02494508, Final residual = 0.0007350491, No Iterations 2
GAMG:  Solving for p, Initial residual = 0.004016644, Final residual = 0.0003800401, No Iterations 1
GAMG:  Solving for p, Initial residual = 0.0009237355, Final residual = 3.650556e-05, No Iterations 2
time step continuity errors : sum local = 7.952678e-06, global = -4.680478e-07, cumulative = -6.269084e-05
smoothSolver:  Solving for epsilon, Initial residual = 0.001701723, Final residual = 9.181164e-05, No Iterations 3
smoothSolver:  Solving for k, Initial residual = 0.003538537, Final residual = 0.0002600956, No Iterations 3
ExecutionTime = 55.92 s  ClockTime = 121 s

Time = 191

smoothSolver:  Solving for Ux, Initial residual = 0.001463434, Final residual = 6.978444e-05, No Iterations 4
smoothSolver:  Solving for Uy, Initial residual = 0.004383771, Final residual = 0.0002127639, No Iterations 4
smoothSolver:  Solving for Uz, Initial residual = 0.002272763, Final residual = 0.0001092096, No Iterations 4
GAMG:  Solving for p, Initial residual = 0.0240192, Final residual = 0.0007364243, No Iterations 2
GAMG:  Solving for p, Initial residual = 0.003840141, Final residual = 0.0003732371, No Iterations 1
GAMG:  Solving for p, Initial residual = 0.0008944167, Final residual = 3.631104e-05, No Iterations 2
time step continuity errors : sum local = 7.905682e-06, global = -4.287386e-07, cumulative = -6.311958e-05
smoothSolver:  Solving for epsilon, Initial residual = 0.001681157, Final residual = 9.128292e-05, No Iterations 3
smoothSolver:  Solving for k, Initial residual = 0.003503013, Final residual = 0.0002591452, No Iterations 3
ExecutionTime = 56.15 s  ClockTime = 121 s

Time = 192

smoothSolver:  Solving for Ux, Initial residual = 0.001425831, Final residual = 6.828442e-05, No Iterations 4
smoothSolver:  Solving for Uy, Initial residual = 0.004299423, Final residual = 0.0002082438, No Iterations 4
smoothSolver:  Solving for Uz, Initial residual = 0.002250183, Final residual = 0.0001082789, No Iterations 4
GAMG:  Solving for p, Initial residual = 0.02304954, Final residual = 0.0007247514, No Iterations 2
GAMG:  Solving for p, Initial residual = 0.003662882, Final residual = 0.0003600982, No Iterations 1
GAMG:  Solving for p, Initial residual = 0.000852317, Final residual = 3.642687e-05, No Iterations 2
time step continuity errors : sum local = 7.927537e-06, global = -1.11663e-06, cumulative = -6.423621e-05
smoothSolver:  Solving for epsilon, Initial residual = 0.00165276, Final residual = 9.047995e-05, No Iterations 3
smoothSolver:  Solving for k, Initial residual = 0.003446286, Final residual = 0.0002570589, No Iterations 3
ExecutionTime = 56.41 s  ClockTime = 122 s

Time = 193

smoothSolver:  Solving for Ux, Initial residual = 0.001388514, Final residual = 6.656618e-05, No Iterations 4
smoothSolver:  Solving for Uy, Initial residual = 0.004226214, Final residual = 0.0002048184, No Iterations 4
smoothSolver:  Solving for Uz, Initial residual = 0.002219743, Final residual = 0.000107027, No Iterations 4
GAMG:  Solving for p, Initial residual = 0.02199293, Final residual = 0.0006970673, No Iterations 2
GAMG:  Solving for p, Initial residual = 0.003501289, Final residual = 0.0003423285, No Iterations 1
GAMG:  Solving for p, Initial residual = 0.0008028158, Final residual = 3.390034e-05, No Iterations 2
time step continuity errors : sum local = 7.375305e-06, global = -1.175568e-06, cumulative = -6.541178e-05
smoothSolver:  Solving for epsilon, Initial residual = 0.001621879, Final residual = 8.955817e-05, No Iterations 3
smoothSolver:  Solving for k, Initial residual = 0.003379854, Final residual = 0.0002539766, No Iterations 3
ExecutionTime = 56.66 s  ClockTime = 122 s

Time = 194

smoothSolver:  Solving for Ux, Initial residual = 0.001352599, Final residual = 6.481893e-05, No Iterations 4
smoothSolver:  Solving for Uy, Initial residual = 0.004137434, Final residual = 0.0002016228, No Iterations 4
smoothSolver:  Solving for Uz, Initial residual = 0.002177975, Final residual = 0.0001051546, No Iterations 4
GAMG:  Solving for p, Initial residual = 0.02099807, Final residual = 0.0006616049, No Iterations 2
GAMG:  Solving for p, Initial residual = 0.003324777, Final residual = 0.0003224482, No Iterations 1
GAMG:  Solving for p, Initial residual = 0.0007575858, Final residual = 3.113304e-05, No Iterations 2
time step continuity errors : sum local = 6.7713e-06, global = -1.198476e-06, cumulative = -6.661025e-05
smoothSolver:  Solving for epsilon, Initial residual = 0.001587567, Final residual = 8.83927e-05, No Iterations 3
smoothSolver:  Solving for k, Initial residual = 0.003302097, Final residual = 0.0002500092, No Iterations 3
ExecutionTime = 56.99 s  ClockTime = 123 s

Time = 195

smoothSolver:  Solving for Ux, Initial residual = 0.001316453, Final residual = 6.299928e-05, No Iterations 4
smoothSolver:  Solving for Uy, Initial residual = 0.004047327, Final residual = 0.0001982896, No Iterations 4
smoothSolver:  Solving for Uz, Initial residual = 0.002129356, Final residual = 0.0001026102, No Iterations 4
GAMG:  Solving for p, Initial residual = 0.02023666, Final residual = 0.0006326408, No Iterations 2
GAMG:  Solving for p, Initial residual = 0.003201639, Final residual = 0.0003060111, No Iterations 1
GAMG:  Solving for p, Initial residual = 0.0007399387, Final residual = 2.75031e-05, No Iterations 2
time step continuity errors : sum local = 5.979959e-06, global = -4.632746e-07, cumulative = -6.707353e-05
smoothSolver:  Solving for epsilon, Initial residual = 0.0015514, Final residual = 8.697009e-05, No Iterations 3
smoothSolver:  Solving for k, Initial residual = 0.003216172, Final residual = 0.0002454344, No Iterations 3
ExecutionTime = 57.24 s  ClockTime = 123 s

Time = 196

smoothSolver:  Solving for Ux, Initial residual = 0.001283793, Final residual = 6.106892e-05, No Iterations 4
smoothSolver:  Solving for Uy, Initial residual = 0.003950797, Final residual = 0.000194954, No Iterations 4
smoothSolver:  Solving for Uz, Initial residual = 0.002078031, Final residual = 9.960291e-05, No Iterations 4
GAMG:  Solving for p, Initial residual = 0.01962949, Final residual = 0.0006142144, No Iterations 2
GAMG:  Solving for p, Initial residual = 0.003148737, Final residual = 0.0002959303, No Iterations 1
GAMG:  Solving for p, Initial residual = 0.0007233156, Final residual = 2.74732e-05, No Iterations 2
time step continuity errors : sum local = 5.9723e-06, global = -3.520294e-07, cumulative = -6.742556e-05
smoothSolver:  Solving for epsilon, Initial residual = 0.001513699, Final residual = 8.519469e-05, No Iterations 3
smoothSolver:  Solving for k, Initial residual = 0.003124643, Final residual = 0.0002400652, No Iterations 3
ExecutionTime = 57.48 s  ClockTime = 124 s

Time = 197

smoothSolver:  Solving for Ux, Initial residual = 0.001251572, Final residual = 5.899348e-05, No Iterations 4
smoothSolver:  Solving for Uy, Initial residual = 0.003862409, Final residual = 0.0001913513, No Iterations 4
smoothSolver:  Solving for Uz, Initial residual = 0.002026404, Final residual = 9.642061e-05, No Iterations 4
GAMG:  Solving for p, Initial residual = 0.01918142, Final residual = 0.0006006601, No Iterations 2
GAMG:  Solving for p, Initial residual = 0.003051565, Final residual = 0.0002868542, No Iterations 1
GAMG:  Solving for p, Initial residual = 0.0006979642, Final residual = 2.81259e-05, No Iterations 2
time step continuity errors : sum local = 6.11325e-06, global = -8.405072e-07, cumulative = -6.826606e-05
smoothSolver:  Solving for epsilon, Initial residual = 0.001475544, Final residual = 8.312748e-05, No Iterations 3
smoothSolver:  Solving for k, Initial residual = 0.003027508, Final residual = 0.0002341213, No Iterations 3
ExecutionTime = 57.71 s  ClockTime = 124 s

Time = 198

smoothSolver:  Solving for Ux, Initial residual = 0.001218825, Final residual = 5.707079e-05, No Iterations 4
smoothSolver:  Solving for Uy, Initial residual = 0.003782647, Final residual = 0.0001873473, No Iterations 4
smoothSolver:  Solving for Uz, Initial residual = 0.001969126, Final residual = 9.316905e-05, No Iterations 4
GAMG:  Solving for p, Initial residual = 0.01889125, Final residual = 0.000588412, No Iterations 2
GAMG:  Solving for p, Initial residual = 0.003005577, Final residual = 0.0002811338, No Iterations 1
GAMG:  Solving for p, Initial residual = 0.0006877075, Final residual = 2.59021e-05, No Iterations 2
time step continuity errors : sum local = 5.629202e-06, global = -2.800583e-07, cumulative = -6.854612e-05
smoothSolver:  Solving for epsilon, Initial residual = 0.001435556, Final residual = 8.083755e-05, No Iterations 3
smoothSolver:  Solving for k, Initial residual = 0.00292979, Final residual = 0.000227808, No Iterations 3
ExecutionTime = 57.99 s  ClockTime = 125 s

Time = 199

smoothSolver:  Solving for Ux, Initial residual = 0.001184294, Final residual = 5.507753e-05, No Iterations 4
smoothSolver:  Solving for Uy, Initial residual = 0.003710283, Final residual = 0.0001831973, No Iterations 4
smoothSolver:  Solving for Uz, Initial residual = 0.001907375, Final residual = 8.992413e-05, No Iterations 4
GAMG:  Solving for p, Initial residual = 0.01862833, Final residual = 0.000574323, No Iterations 2
GAMG:  Solving for p, Initial residual = 0.003016598, Final residual = 0.0002769486, No Iterations 1
GAMG:  Solving for p, Initial residual = 0.0006814165, Final residual = 2.581116e-05, No Iterations 2
time step continuity errors : sum local = 5.610068e-06, global = -2.683138e-07, cumulative = -6.881444e-05
smoothSolver:  Solving for epsilon, Initial residual = 0.001391684, Final residual = 7.8308e-05, No Iterations 3
smoothSolver:  Solving for k, Initial residual = 0.002824814, Final residual = 0.0002205943, No Iterations 3
ExecutionTime = 58.29 s  ClockTime = 126 s


    From function virtual bool Foam::regIOobject::readIfModified()
    in file db/regIOobject/regIOobjectRead.C at line 408
        Re-reading object controlDict from file "/home/ofuser/workingDir/butterfly/indoor_airflow/system/controlDict"
End

Finalising parallel run
