/*---------------------------------------------------------------------------*\
| =========                 |                                                 |
| \\      /  F ield         | OpenFOAM: The Open Source CFD Toolbox           |
|  \\    /   O peration     | Version:  v1612+                                |
|   \\  /    A nd           | Web:      www.OpenFOAM.com                      |
|    \\/     M anipulation  |                                                 |
\*---------------------------------------------------------------------------*/
Build  : v1612+
Exec   : snappyHexMesh
Date   : Feb 12 2017
Time   : 02:21:35
Host   : "default"
PID    : 29471
Case   : /home/ofuser/workingDir/butterfly/pipe
nProcs : 1
sigFpe : Enabling floating point exception trapping (FOAM_SIGFPE).
fileModificationChecking : Monitoring run-time modified files using timeStampMaster (fileModificationSkew 10)
allowSystemOperations : Allowing user-supplied system call operations

// * * * * * * * * * * * * * * * * * * * * * * * * * * * * * * * * * * * * * //
Create time

Create mesh for time = 0

Read mesh in = 0.11 s

Overall mesh bounding box  : (-0.4999898 -0.5000043 1.000004) (0.5000102 0.4999957 5.000004)
Relative tolerance         : 1e-06
Absolute matching distance : 4.242641e-06

Reading refinement surfaces.
--> FOAM Warning : 
    From function Foam::refinementSurfaces::refinementSurfaces(const Foam::searchableSurfaces&, const Foam::dictionary&, Foam::label)
    in file refinementSurfaces/refinementSurfaces.C at line 390
    Reading "/home/ofuser/workingDir/butterfly/pipe/system/snappyHexMeshDict.castellatedMeshControls.refinementSurfaces" from line 86 to line 101
    Not all entries in refinementSurfaces dictionary were used. The following entries were not used : 1(cylinder)
Read refinement surfaces in = 0.13 s

Reading refinement shells.
Read refinement shells in = 0 s

Setting refinement level of surface to be consistent with shells.
For geometry pipe.stl detected 253 uncached triangles out of 36366
Checked shell refinement in = 0.21 s

Reading features.
Read features in = 0 s


Determining initial surface intersections
-----------------------------------------

Edge intersection testing:
    Number of edges             : 50000
    Number of edges to retest   : 50000
    Number of intersected edges : 1600
Calculated surface intersections in = 0.08 s

Initial mesh : cells:16000  faces:50000  points:18081
Cells per refinement level:
    0	16000

Adding patches for surface regions
----------------------------------

Patch Type                Region                        
----- ----                ------                        
pipe:

1     wall                inlet                         
2     wall                outlet                        
3     wall                main_pipe                     

Added patches in = 0 s

Edge intersection testing:
    Number of edges             : 50000
    Number of edges to retest   : 0
    Number of intersected edges : 1600
Selecting decompositionMethod none

Refinement phase
----------------

Found point (5.498528e-06 1.996687e-06 3) in cell 7809 on processor 0

Surface refinement iteration 0
------------------------------

Marked for refinement due to surface intersection          : 2400 cells.
Determined cells to refine in = 0.18 s
Selected for refinement : 2400 cells (out of 16000)
Edge intersection testing:
    Number of edges             : 105380
    Number of edges to retest   : 71016
    Number of intersected edges : 6400
Refined mesh in = 0.18 s
After refinement surface refinement iteration 0 : cells:32800  faces:105380  points:39901
Cells per refinement level:
    0	13600
    1	19200

Surface refinement iteration 1
------------------------------

Marked for refinement due to surface intersection          : 0 cells.
Determined cells to refine in = 0.01 s
Selected for refinement : 0 cells (out of 32800)
Stopping refining since too few cells selected.


Removing mesh beyond surface intersections
------------------------------------------

Setting cellZones according to locationsInMesh:
Location : (5.498528e-06 1.996687e-06 3)
    cellZone : none

For cellZone none found point (5.498528e-06 1.996687e-06 3) in global region 1 out of 2 regions.
Keeping all cells containing points 1((5.498528e-06 1.996687e-06 3))
Selected for keeping : 21000 cells.
Edge intersection testing:
    Number of edges             : 72336
    Number of edges to retest   : 10184
    Number of intersected edges : 6400

Shell refinement iteration 0
----------------------------

Marked for refinement due to distance to explicit features : 0 cells.
Marked for refinement due to refinement shells             : 0 cells.
Determined cells to refine in = 0.67 s
Selected for internal refinement : 810 cells (out of 21000)
Edge intersection testing:
    Number of edges             : 89091
    Number of edges to retest   : 40614
    Number of intersected edges : 6400
Refined mesh in = 0.15 s
After refinement shell refinement iteration 0 : cells:26670  faces:89091  points:35794
Cells per refinement level:
    0	4734
    1	21936

Shell refinement iteration 1
----------------------------

Marked for refinement due to distance to explicit features : 0 cells.
Marked for refinement due to refinement shells             : 0 cells.
Determined cells to refine in = 0.02 s
Selected for internal refinement : 0 cells (out of 26670)
Stopping refining since too few cells selected.


Dangling coarse cells refinement iteration 0
--------------------------------------------

Determined cells to refine in = 0.01 s
Selected for refinement : 0 cells (out of 26670)
Stopping refining since too few cells selected.


Dangling coarse cells refinement iteration 0
--------------------------------------------

Determined cells to refine in = 0 s
Selected for refinement : 0 cells (out of 26670)
Stopping refining since too few cells selected.


Refinement transition refinement iteration 0
--------------------------------------------

Determined cells to refine in = 0.01 s
Selected for refinement : 0 cells (out of 26670)
Stopping refining since too few cells selected.


Splitting mesh at surface intersections
---------------------------------------

Introducing baffles for 6400 faces that are intersected by the surface.

Setting cellZones according to locationsInMesh:
Location : (5.498528e-06 1.996687e-06 3)
    cellZone : none

For cellZone none found point (5.498528e-06 1.996687e-06 3) in global region 1 out of 2 regions.
Edge intersection testing:
    Number of edges             : 95491
    Number of edges to retest   : 40756
    Number of intersected edges : 12800
Created baffles in = 0.62 s


After introducing baffles : cells:26670  faces:95491  points:35794
Cells per refinement level:
    0	4734
    1	21936

Introducing baffles to block off problem cells
----------------------------------------------

markFacesOnProblemCells : marked 13036 additional internal faces to be converted into baffles.
Analyzed problem cells in = 0.07 s


Introducing baffles to delete problem cells.

Edge intersection testing:
    Number of edges             : 108527
    Number of edges to retest   : 39672
    Number of intersected edges : 12800
Created baffles in = 0.14 s


After introducing baffles : cells:26670  faces:108527  points:35794
Cells per refinement level:
    0	4734
    1	21936
Setting cellZones according to locationsInMesh:
Location : (5.498528e-06 1.996687e-06 3)
    cellZone : none

For cellZone none found point (5.498528e-06 1.996687e-06 3) in global region 1 out of 6466 regions.
Edge intersection testing:
    Number of edges             : 108527
    Number of edges to retest   : 48248
    Number of intersected edges : 12800

Remove unreachable sections of mesh
-----------------------------------

Keeping all cells containing points 1((5.498528e-06 1.996687e-06 3))
Selected for keeping : 16040 cells.
Edge intersection testing:
    Number of edges             : 52977
    Number of edges to retest   : 0
    Number of intersected edges : 6400
Split mesh in = 1 s


After subsetting : cells:16040  faces:52977  points:20990
Cells per refinement level:
    0	1320
    1	14720

Introducing zones for interfaces
--------------------------------

Setting cellZones according to locationsInMesh:
Location : (5.498528e-06 1.996687e-06 3)
    cellZone : none

For cellZone none found point (5.498528e-06 1.996687e-06 3) in global region 0 out of 1 regions.
Setting faceZones according to neighbouring cellZones:

Edge intersection testing:
    Number of edges             : 52977
    Number of edges to retest   : 0
    Number of intersected edges : 6400

Handling cells with snap problems
---------------------------------

Introducing baffles for 6400 faces that are intersected by the surface.

Setting cellZones according to locationsInMesh:
Location : (5.498528e-06 1.996687e-06 3)
    cellZone : none

For cellZone none found point (5.498528e-06 1.996687e-06 3) in global region 0 out of 1 regions.
Edge intersection testing:
    Number of edges             : 52977
    Number of edges to retest   : 19576
    Number of intersected edges : 6400
Created baffles in = 0.6 s


After introducing baffles : cells:16040  faces:52977  points:20990
Cells per refinement level:
    0	1320
    1	14720

Introducing baffles to block off problem cells
----------------------------------------------

markFacesOnProblemCells : marked 0 additional internal faces to be converted into baffles.
Analyzed problem cells in = 0.04 s


Introducing baffles to delete problem cells.

Created baffles in = 0 s


After introducing baffles : cells:16040  faces:52977  points:20990
Cells per refinement level:
    0	1320
    1	14720
Setting cellZones according to locationsInMesh:
Location : (5.498528e-06 1.996687e-06 3)
    cellZone : none

For cellZone none found point (5.498528e-06 1.996687e-06 3) in global region 0 out of 1 regions.
Edge intersection testing:
    Number of edges             : 52977
    Number of edges to retest   : 19576
    Number of intersected edges : 6400

Remove unreachable sections of mesh
-----------------------------------

Split mesh in = 0.53 s


After subsetting : cells:16040  faces:52977  points:20990
Cells per refinement level:
    0	1320
    1	14720

Merge free-standing baffles
---------------------------

freeStandingBaffles : detected 0 free-standing baffles out of 0

Detected free-standing baffles : 0
Merged free-standing baffles in = 0.01 s


dupNonManifoldPoints : Found : 0 non-manifold points (out of 20990)
Detected unsplittable baffles : 0

Merge refined boundary faces
----------------------------

Merging 0 sets of faces.

No faces merged ...

Merging all points on surface that
- are used by only two boundary faces and
- make an angle with a cosine of more than 0.7071068.

No straight edges simplified and no points removed ...
Refined mesh : cells:16040  faces:52977  points:20990
Cells per refinement level:
    0	1320
    1	14720
Writing mesh to time 1
Wrote mesh in = 0.2 s.
Mesh refined in = 4.43 s.

Morphing phase
--------------

Duplicating 0 points on faceZones of type boundary
Snapping to features in 10 iterations ...
Constructing mesh displacer ...
Using mesh parameters 
{
    maxNonOrtho     60;
    maxBoundarySkewness 20;
    maxInternalSkewness 4;
    maxConcave      80;
    minFlatness     0.5;
    minVol          1e-13;
    minTetQuality   1e-15;
    minArea         -1;
    minTwist        0.02;
    minDeterminant  0.001;
    minFaceWeight   0.02;
    minVolRatio     0.01;
    minTriangleTwist -1;
    nSmoothScale    4;
    errorReduction  0.75;
}


Checking initial mesh ...
Checking faces in error :
    non-orthogonality > 60  degrees                        : 0
    faces with face pyramid volume < 1e-13                 : 0
    faces with face-decomposition tet quality < 1e-15      : 0
    faces with concavity > 80  degrees                     : 0
    faces with skewness > 4   (internal) or 20  (boundary) : 0
    faces with interpolation weights (0..1)  < 0.02        : 0
    faces with volume ratio of neighbour cells < 0.01      : 0
    faces with face twist < 0.02                           : 0
    faces on cells with determinant < 0.001                : 0
Detected 0 illegal faces (concave, zero area or negative cell pyramid volume)
Checked initial mesh in = 0.08 s


Smoothing patch points ...
Smoothing iteration 0
Found 0 non-manifold point(s).

Scaling iteration 0
Moving mesh using displacement scaling : min:1  max:1
Checking faces in error :
    non-orthogonality > 60  degrees                        : 0
    faces with face pyramid volume < 1e-13                 : 0
    faces with face-decomposition tet quality < 1e-15      : 0
    faces with concavity > 80  degrees                     : 0
    faces with skewness > 4   (internal) or 20  (boundary) : 0
    faces with interpolation weights (0..1)  < 0.02        : 0
    faces with volume ratio of neighbour cells < 0.01      : 0
    faces with face twist < 0.02                           : 0
    faces on cells with determinant < 0.001                : 0
Successfully moved mesh

Smoothing iteration 1
Found 0 non-manifold point(s).

Scaling iteration 0
Moving mesh using displacement scaling : min:1  max:1
Checking faces in error :
    non-orthogonality > 60  degrees                        : 0
    faces with face pyramid volume < 1e-13                 : 0
    faces with face-decomposition tet quality < 1e-15      : 0
    faces with concavity > 80  degrees                     : 0
    faces with skewness > 4   (internal) or 20  (boundary) : 0
    faces with interpolation weights (0..1)  < 0.02        : 0
    faces with volume ratio of neighbour cells < 0.01      : 0
    faces with face twist < 0.02                           : 0
    faces on cells with determinant < 0.001                : 0
Successfully moved mesh

Smoothing iteration 2
Found 0 non-manifold point(s).

Scaling iteration 0
Moving mesh using displacement scaling : min:1  max:1
Checking faces in error :
    non-orthogonality > 60  degrees                        : 0
    faces with face pyramid volume < 1e-13                 : 0
    faces with face-decomposition tet quality < 1e-15      : 0
    faces with concavity > 80  degrees                     : 0
    faces with skewness > 4   (internal) or 20  (boundary) : 0
    faces with interpolation weights (0..1)  < 0.02        : 0
    faces with volume ratio of neighbour cells < 0.01      : 0
    faces with face twist < 0.02                           : 0
    faces on cells with determinant < 0.001                : 0
Successfully moved mesh

Smoothing iteration 3
Found 0 non-manifold point(s).

Scaling iteration 0
Moving mesh using displacement scaling : min:1  max:1
Checking faces in error :
    non-orthogonality > 60  degrees                        : 0
    faces with face pyramid volume < 1e-13                 : 0
    faces with face-decomposition tet quality < 1e-15      : 0
    faces with concavity > 80  degrees                     : 0
    faces with skewness > 4   (internal) or 20  (boundary) : 0
    faces with interpolation weights (0..1)  < 0.02        : 0
    faces with volume ratio of neighbour cells < 0.01      : 0
    faces with face twist < 0.02                           : 0
    faces on cells with determinant < 0.001                : 0
Successfully moved mesh

Smoothing iteration 4
Found 0 non-manifold point(s).

Scaling iteration 0
Moving mesh using displacement scaling : min:1  max:1
Checking faces in error :
    non-orthogonality > 60  degrees                        : 0
    faces with face pyramid volume < 1e-13                 : 0
    faces with face-decomposition tet quality < 1e-15      : 0
    faces with concavity > 80  degrees                     : 0
    faces with skewness > 4   (internal) or 20  (boundary) : 0
    faces with interpolation weights (0..1)  < 0.02        : 0
    faces with volume ratio of neighbour cells < 0.01      : 0
    faces with face twist < 0.02                           : 0
    faces on cells with determinant < 0.001                : 0
Successfully moved mesh

Smoothing iteration 5
Found 0 non-manifold point(s).

Scaling iteration 0
Moving mesh using displacement scaling : min:1  max:1
Checking faces in error :
    non-orthogonality > 60  degrees                        : 0
    faces with face pyramid volume < 1e-13                 : 0
    faces with face-decomposition tet quality < 1e-15      : 0
    faces with concavity > 80  degrees                     : 0
    faces with skewness > 4   (internal) or 20  (boundary) : 0
    faces with interpolation weights (0..1)  < 0.02        : 0
    faces with volume ratio of neighbour cells < 0.01      : 0
    faces with face twist < 0.02                           : 0
    faces on cells with determinant < 0.001                : 0
Successfully moved mesh

Smoothing iteration 6
Found 0 non-manifold point(s).

Scaling iteration 0
Moving mesh using displacement scaling : min:1  max:1
Checking faces in error :
    non-orthogonality > 60  degrees                        : 0
    faces with face pyramid volume < 1e-13                 : 0
    faces with face-decomposition tet quality < 1e-15      : 0
    faces with concavity > 80  degrees                     : 0
    faces with skewness > 4   (internal) or 20  (boundary) : 0
    faces with interpolation weights (0..1)  < 0.02        : 0
    faces with volume ratio of neighbour cells < 0.01      : 0
    faces with face twist < 0.02                           : 0
    faces on cells with determinant < 0.001                : 0
Successfully moved mesh

Smoothing iteration 7
Found 0 non-manifold point(s).

Scaling iteration 0
Moving mesh using displacement scaling : min:1  max:1
Checking faces in error :
    non-orthogonality > 60  degrees                        : 0
    faces with face pyramid volume < 1e-13                 : 0
    faces with face-decomposition tet quality < 1e-15      : 0
    faces with concavity > 80  degrees                     : 0
    faces with skewness > 4   (internal) or 20  (boundary) : 0
    faces with interpolation weights (0..1)  < 0.02        : 0
    faces with volume ratio of neighbour cells < 0.01      : 0
    faces with face twist < 0.02                           : 0
    faces on cells with determinant < 0.001                : 0
Successfully moved mesh

Patch points smoothed in = 0.84 s



Morph iteration 0
-----------------
Calculating patchDisplacement as distance to nearest surface point ...
    non-zone points : attract to nearest of all non-zone surfaces
    zone points     : attract to zone surface only

Wanted displacement : average:0.008627852 min:0.003805176 max:0.01187632
Calculated surface displacement in = 0.03 s


Detecting near surfaces ...
Overriding nearest with intersection of close gaps at 0 out of 6480 points.
Overriding displacement on features :
   implicit features    : true
   explicit features    : true
   multi-patch features : true

Detected 0 baffle edges out of 12880 edges.
Baffle points     : 0 of which attracted to :
    feature point : 0
    feature edge  : 0
    rest          : 0

Initially selected 0 mesh points out of 6480 for reverse attraction.
Selected 0 mesh points out of 6480 for reverse attraction.
Stringing feature edges : changed 0 points
Attraction:
    linear   : max:(-0.01025855 -0.005984046 1.972826e-05) avg:(9.704859e-06 -7.871447e-06 -3.430551e-07)
    feature  : max:(0 0 0) avg:(0 0 0)
Feature analysis : total master points :6480 of which attracted to :
    feature point   : 0
    feature edge    : 0
    nearest surface : 0
    rest            : 6480

Smoothing displacement ...
Iteration 0
Iteration 10
Iteration 20
Iteration 30
Iteration 40
Iteration 50
Iteration 60
Iteration 70
Iteration 80
Iteration 90
Displacement smoothed in = 0.24 s


Moving mesh ...

Iteration 0
Moving mesh using displacement scaling : min:1  max:1
Checking faces in error :
    non-orthogonality > 60  degrees                        : 0
    faces with face pyramid volume < 1e-13                 : 0
    faces with face-decomposition tet quality < 1e-15      : 0
    faces with concavity > 80  degrees                     : 0
    faces with skewness > 4   (internal) or 20  (boundary) : 0
    faces with interpolation weights (0..1)  < 0.02        : 0
    faces with volume ratio of neighbour cells < 0.01      : 0
    faces with face twist < 0.02                           : 0
    faces on cells with determinant < 0.001                : 0
Successfully moved mesh
Moved mesh in = 0.11 s



Morph iteration 1
-----------------
Calculating patchDisplacement as distance to nearest surface point ...
    non-zone points : attract to nearest of all non-zone surfaces
    zone points     : attract to zone surface only

Wanted displacement : average:0.007777291 min:0.003135553 max:0.0109572
Calculated surface displacement in = 0.03 s


Detecting near surfaces ...
Overriding nearest with intersection of close gaps at 0 out of 6480 points.
Overriding displacement on features :
   implicit features    : true
   explicit features    : true
   multi-patch features : true

Detected 0 baffle edges out of 12880 edges.
Baffle points     : 0 of which attracted to :
    feature point : 0
    feature edge  : 0
    rest          : 0

Initially selected 0 mesh points out of 6480 for reverse attraction.
Selected 0 mesh points out of 6480 for reverse attraction.
Stringing feature edges : changed 0 points
Attraction:
    linear   : max:(-0.009464628 -0.005520934 1.820146e-05) avg:(9.054856e-06 -7.241269e-06 -3.431956e-07)
    feature  : max:(0 0 0) avg:(0 0 0)
Feature analysis : total master points :6480 of which attracted to :
    feature point   : 0
    feature edge    : 0
    nearest surface : 0
    rest            : 6480

Smoothing displacement ...
Iteration 0
Iteration 10
Iteration 20
Iteration 30
Iteration 40
Iteration 50
Iteration 60
Iteration 70
Iteration 80
Iteration 90
Displacement smoothed in = 0.2 s


Moving mesh ...

Iteration 0
Moving mesh using displacement scaling : min:1  max:1
Checking faces in error :
    non-orthogonality > 60  degrees                        : 0
    faces with face pyramid volume < 1e-13                 : 0
    faces with face-decomposition tet quality < 1e-15      : 0
    faces with concavity > 80  degrees                     : 0
    faces with skewness > 4   (internal) or 20  (boundary) : 0
    faces with interpolation weights (0..1)  < 0.02        : 0
    faces with volume ratio of neighbour cells < 0.01      : 0
    faces with face twist < 0.02                           : 0
    faces on cells with determinant < 0.001                : 0
Successfully moved mesh
Moved mesh in = 0.09 s



Morph iteration 2
-----------------
Calculating patchDisplacement as distance to nearest surface point ...
    non-zone points : attract to nearest of all non-zone surfaces
    zone points     : attract to zone surface only

Wanted displacement : average:0.006241527 min:0.002006182 max:0.009231625
Calculated surface displacement in = 0.03 s


Detecting near surfaces ...
Overriding nearest with intersection of close gaps at 0 out of 6480 points.
Overriding displacement on features :
   implicit features    : true
   explicit features    : true
   multi-patch features : true

Detected 0 baffle edges out of 12880 edges.
Baffle points     : 0 of which attracted to :
    feature point : 0
    feature edge  : 0
    rest          : 0

Initially selected 0 mesh points out of 6480 for reverse attraction.
Selected 0 mesh points out of 6480 for reverse attraction.
Stringing feature edges : changed 0 points
Attraction:
    linear   : max:(-0.007974108 -0.004651479 1.533504e-05) avg:(8.034277e-06 -6.366776e-06 -3.325447e-07)
    feature  : max:(0 0 0) avg:(0 0 0)
Feature analysis : total master points :6480 of which attracted to :
    feature point   : 0
    feature edge    : 0
    nearest surface : 0
    rest            : 6480

Smoothing displacement ...
Iteration 0
Iteration 10
Iteration 20
Iteration 30
Iteration 40
Iteration 50
Iteration 60
Iteration 70
Iteration 80
Iteration 90
Displacement smoothed in = 0.21 s


Moving mesh ...

Iteration 0
Moving mesh using displacement scaling : min:1  max:1
Checking faces in error :
    non-orthogonality > 60  degrees                        : 0
    faces with face pyramid volume < 1e-13                 : 0
    faces with face-decomposition tet quality < 1e-15      : 0
    faces with concavity > 80  degrees                     : 0
    faces with skewness > 4   (internal) or 20  (boundary) : 0
    faces with interpolation weights (0..1)  < 0.02        : 0
    faces with volume ratio of neighbour cells < 0.01      : 0
    faces with face twist < 0.02                           : 0
    faces on cells with determinant < 0.001                : 0
Successfully moved mesh
Moved mesh in = 0.11 s



Morph iteration 3
-----------------
Calculating patchDisplacement as distance to nearest surface point ...
    non-zone points : attract to nearest of all non-zone surfaces
    zone points     : attract to zone surface only

Wanted displacement : average:0.004389884 min:0.00078847 max:0.007050956
Calculated surface displacement in = 0.02 s


Detecting near surfaces ...
Overriding nearest with intersection of close gaps at 0 out of 6480 points.
Overriding displacement on features :
   implicit features    : true
   explicit features    : true
   multi-patch features : true

Detected 0 baffle edges out of 12880 edges.
Baffle points     : 0 of which attracted to :
    feature point : 0
    feature edge  : 0
    rest          : 0

Initially selected 0 mesh points out of 6480 for reverse attraction.
Selected 0 mesh points out of 6480 for reverse attraction.
Stringing feature edges : changed 0 points
Attraction:
    linear   : max:(-0.006093383 0.003547764 -6.076852e-06) avg:(6.145858e-06 -4.832229e-06 -2.44371e-07)
    feature  : max:(0 0 0) avg:(0 0 0)
Feature analysis : total master points :6480 of which attracted to :
    feature point   : 0
    feature edge    : 0
    nearest surface : 0
    rest            : 6480

Smoothing displacement ...
Iteration 0
Iteration 10
Iteration 20
Iteration 30
Iteration 40
Iteration 50
Iteration 60
Iteration 70
Iteration 80
Iteration 90
Displacement smoothed in = 0.2 s


Moving mesh ...

Iteration 0
Moving mesh using displacement scaling : min:1  max:1
Checking faces in error :
    non-orthogonality > 60  degrees                        : 0
    faces with face pyramid volume < 1e-13                 : 0
    faces with face-decomposition tet quality < 1e-15      : 0
    faces with concavity > 80  degrees                     : 0
    faces with skewness > 4   (internal) or 20  (boundary) : 0
    faces with interpolation weights (0..1)  < 0.02        : 0
    faces with volume ratio of neighbour cells < 0.01      : 0
    faces with face twist < 0.02                           : 0
    faces on cells with determinant < 0.001                : 0
Successfully moved mesh
Moved mesh in = 0.09 s



Morph iteration 4
-----------------
Calculating patchDisplacement as distance to nearest surface point ...
    non-zone points : attract to nearest of all non-zone surfaces
    zone points     : attract to zone surface only

Wanted displacement : average:0.002651004 min:3.498534e-07 max:0.004843157
Calculated surface displacement in = 0.02 s


Detecting near surfaces ...
Overriding nearest with intersection of close gaps at 0 out of 6480 points.
Overriding displacement on features :
   implicit features    : true
   explicit features    : true
   multi-patch features : true

Detected 0 baffle edges out of 12880 edges.
Baffle points     : 0 of which attracted to :
    feature point : 0
    feature edge  : 0
    rest          : 0

Initially selected 0 mesh points out of 6480 for reverse attraction.
Selected 0 mesh points out of 6480 for reverse attraction.
Stringing feature edges : changed 0 points
Attraction:
    linear   : max:(-0.003959239 -0.002789371 3.640825e-06) avg:(4.174957e-06 -3.16729e-06 -1.692493e-07)
    feature  : max:(0 0 0) avg:(0 0 0)
Feature analysis : total master points :6480 of which attracted to :
    feature point   : 0
    feature edge    : 0
    nearest surface : 0
    rest            : 6480

Smoothing displacement ...
Iteration 0
Iteration 10
Iteration 20
Iteration 30
Iteration 40
Iteration 50
Iteration 60
Iteration 70
Iteration 80
Iteration 90
Displacement smoothed in = 0.2 s


Moving mesh ...

Iteration 0
Moving mesh using displacement scaling : min:1  max:1
Checking faces in error :
    non-orthogonality > 60  degrees                        : 0
    faces with face pyramid volume < 1e-13                 : 0
    faces with face-decomposition tet quality < 1e-15      : 0
    faces with concavity > 80  degrees                     : 0
    faces with skewness > 4   (internal) or 20  (boundary) : 0
    faces with interpolation weights (0..1)  < 0.02        : 0
    faces with volume ratio of neighbour cells < 0.01      : 0
    faces with face twist < 0.02                           : 0
    faces on cells with determinant < 0.001                : 0
Successfully moved mesh
Moved mesh in = 0.09 s



Morph iteration 5
-----------------
Calculating patchDisplacement as distance to nearest surface point ...
    non-zone points : attract to nearest of all non-zone surfaces
    zone points     : attract to zone surface only

Wanted displacement : average:0.001379367 min:4.285036e-05 max:0.002945714
Calculated surface displacement in = 0.02 s


Detecting near surfaces ...
Overriding nearest with intersection of close gaps at 0 out of 6480 points.
Overriding displacement on features :
   implicit features    : true
   explicit features    : true
   multi-patch features : true

Detected 0 baffle edges out of 12880 edges.
Baffle points     : 0 of which attracted to :
    feature point : 0
    feature edge  : 0
    rest          : 0

Initially selected 0 mesh points out of 6480 for reverse attraction.
Selected 0 mesh points out of 6480 for reverse attraction.
Stringing feature edges : changed 0 points
Attraction:
    linear   : max:(-0.002408095 -0.001696556 2.214429e-06) avg:(2.489413e-06 -1.71596e-06 -9.895719e-08)
    feature  : max:(0 0 0) avg:(0 0 0)
Feature analysis : total master points :6480 of which attracted to :
    feature point   : 0
    feature edge    : 0
    nearest surface : 0
    rest            : 6480

--> FOAM Warning : Displacement (-8.16865e-06 -9.847354e-06 2.17761e-06) at mesh point 10915 coord (-0.1886198 0.1642162 5.000004) points through the surrounding patch faces
Smoothing displacement ...
Iteration 0
Iteration 10
Iteration 20
Iteration 30
Iteration 40
Iteration 50
Iteration 60
Iteration 70
Iteration 80
Iteration 90
Displacement smoothed in = 0.21 s


Moving mesh ...

Iteration 0
Moving mesh using displacement scaling : min:1  max:1
Checking faces in error :
    non-orthogonality > 60  degrees                        : 0
    faces with face pyramid volume < 1e-13                 : 0
    faces with face-decomposition tet quality < 1e-15      : 0
    faces with concavity > 80  degrees                     : 0
    faces with skewness > 4   (internal) or 20  (boundary) : 0
    faces with interpolation weights (0..1)  < 0.02        : 0
    faces with volume ratio of neighbour cells < 0.01      : 0
    faces with face twist < 0.02                           : 0
    faces on cells with determinant < 0.001                : 0
Successfully moved mesh
Moved mesh in = 0.1 s



Morph iteration 6
-----------------
Calculating patchDisplacement as distance to nearest surface point ...
    non-zone points : attract to nearest of all non-zone surfaces
    zone points     : attract to zone surface only

Wanted displacement : average:0.0006185077 min:1.176909e-07 max:0.001542361
Calculated surface displacement in = 0.02 s


Detecting near surfaces ...
Overriding nearest with intersection of close gaps at 0 out of 6480 points.
Overriding displacement on features :
   implicit features    : true
   explicit features    : true
   multi-patch features : true

Detected 0 baffle edges out of 12880 edges.
Baffle points     : 0 of which attracted to :
    feature point : 0
    feature edge  : 0
    rest          : 0

Initially selected 0 mesh points out of 6480 for reverse attraction.
Selected 0 mesh points out of 6480 for reverse attraction.
Stringing feature edges : changed 0 points
Attraction:
    linear   : max:(-0.001260867 -0.0008883084 1.159464e-06) avg:(1.246966e-06 -7.554397e-07 -4.855208e-08)
    feature  : max:(0 0 0) avg:(0 0 0)
Feature analysis : total master points :6480 of which attracted to :
    feature point   : 0
    feature edge    : 0
    nearest surface : 0
    rest            : 6480

--> FOAM Warning : Displacement (-0.0001264502 0.0001484771 -1.351273e-06) at mesh point 5118 coord (0.1643569 -0.1886807 1.000004) points through the surrounding patch faces
Smoothing displacement ...
Iteration 0
Iteration 10
Iteration 20
Iteration 30
Iteration 40
Iteration 50
Iteration 60
Iteration 70
Iteration 80
Iteration 90
Displacement smoothed in = 0.19 s


Moving mesh ...

Iteration 0
Moving mesh using displacement scaling : min:1  max:1
Checking faces in error :
    non-orthogonality > 60  degrees                        : 0
    faces with face pyramid volume < 1e-13                 : 0
    faces with face-decomposition tet quality < 1e-15      : 0
    faces with concavity > 80  degrees                     : 0
    faces with skewness > 4   (internal) or 20  (boundary) : 0
    faces with interpolation weights (0..1)  < 0.02        : 0
    faces with volume ratio of neighbour cells < 0.01      : 0
    faces with face twist < 0.02                           : 0
    faces on cells with determinant < 0.001                : 0
Successfully moved mesh
Moved mesh in = 0.1 s



Morph iteration 7
-----------------
Calculating patchDisplacement as distance to nearest surface point ...
    non-zone points : attract to nearest of all non-zone surfaces
    zone points     : attract to zone surface only

Wanted displacement : average:0.0002489192 min:7.668645e-08 max:0.0006640373
Calculated surface displacement in = 0.01 s


Detecting near surfaces ...
Overriding nearest with intersection of close gaps at 0 out of 6480 points.
Overriding displacement on features :
   implicit features    : true
   explicit features    : true
   multi-patch features : true

Detected 0 baffle edges out of 12880 edges.
Baffle points     : 0 of which attracted to :
    feature point : 0
    feature edge  : 0
    rest          : 0

Initially selected 0 mesh points out of 6480 for reverse attraction.
Selected 0 mesh points out of 6480 for reverse attraction.
Stringing feature edges : changed 0 points
Attraction:
    linear   : max:(-0.0003357141 -0.0005729072 -4.343905e-06) avg:(4.837393e-07 -2.475563e-07 -1.959569e-08)
    feature  : max:(0 0 0) avg:(0 0 0)
Feature analysis : total master points :6480 of which attracted to :
    feature point   : 0
    feature edge    : 0
    nearest surface : 0
    rest            : 6480

--> FOAM Warning : Displacement (6.516121e-06 5.745465e-05 -4.266733e-07) at mesh point 0 coord (-0.04536849 -0.2456726 1.000004) points through the surrounding patch faces
Smoothing displacement ...
Iteration 0
Iteration 10
Iteration 20
Iteration 30
Iteration 40
Iteration 50
Iteration 60
Iteration 70
Iteration 80
Iteration 90
Displacement smoothed in = 0.2 s


Moving mesh ...

Iteration 0
Moving mesh using displacement scaling : min:1  max:1
Checking faces in error :
    non-orthogonality > 60  degrees                        : 0
    faces with face pyramid volume < 1e-13                 : 0
    faces with face-decomposition tet quality < 1e-15      : 0
    faces with concavity > 80  degrees                     : 0
    faces with skewness > 4   (internal) or 20  (boundary) : 0
    faces with interpolation weights (0..1)  < 0.02        : 0
    faces with volume ratio of neighbour cells < 0.01      : 0
    faces with face twist < 0.02                           : 0
    faces on cells with determinant < 0.001                : 0
Successfully moved mesh
Moved mesh in = 0.09 s



Morph iteration 8
-----------------
Calculating patchDisplacement as distance to nearest surface point ...
    non-zone points : attract to nearest of all non-zone surfaces
    zone points     : attract to zone surface only

Wanted displacement : average:7.700663e-05 min:3.76109e-07 max:0.0002090883
Calculated surface displacement in = 0.02 s


Detecting near surfaces ...
Overriding nearest with intersection of close gaps at 0 out of 6480 points.
Overriding displacement on features :
   implicit features    : true
   explicit features    : true
   multi-patch features : true

Detected 0 baffle edges out of 12880 edges.
Baffle points     : 0 of which attracted to :
    feature point : 0
    feature edge  : 0
    rest          : 0

Initially selected 0 mesh points out of 6480 for reverse attraction.
Selected 0 mesh points out of 6480 for reverse attraction.
Stringing feature edges : changed 0 points
Attraction:
    linear   : max:(-0.0001057078 -0.0001803938 -1.367784e-06) avg:(1.267379e-07 -5.614434e-08 -5.65638e-09)
    feature  : max:(0 0 0) avg:(0 0 0)
Feature analysis : total master points :6480 of which attracted to :
    feature point   : 0
    feature edge    : 0
    nearest surface : 0
    rest            : 6480

--> FOAM Warning : Displacement (7.719766e-06 4.758628e-05 -2.273677e-07) at mesh point 0 coord (-0.04536197 -0.2456152 1.000004) points through the surrounding patch faces
Smoothing displacement ...
Iteration 0
Iteration 10
Iteration 20
Iteration 30
Iteration 40
Iteration 50
Iteration 60
Iteration 70
Iteration 80
Iteration 90
Displacement smoothed in = 0.2 s


Moving mesh ...

Iteration 0
Moving mesh using displacement scaling : min:1  max:1
Checking faces in error :
    non-orthogonality > 60  degrees                        : 0
    faces with face pyramid volume < 1e-13                 : 0
    faces with face-decomposition tet quality < 1e-15      : 0
    faces with concavity > 80  degrees                     : 0
    faces with skewness > 4   (internal) or 20  (boundary) : 0
    faces with interpolation weights (0..1)  < 0.02        : 0
    faces with volume ratio of neighbour cells < 0.01      : 0
    faces with face twist < 0.02                           : 0
    faces on cells with determinant < 0.001                : 0
Successfully moved mesh
Moved mesh in = 0.1 s



Morph iteration 9
-----------------
Calculating patchDisplacement as distance to nearest surface point ...
    non-zone points : attract to nearest of all non-zone surfaces
    zone points     : attract to zone surface only

Wanted displacement : average:1.290869e-05 min:4.725659e-07 max:3.604126e-05
Calculated surface displacement in = 0.01 s


Detecting near surfaces ...
Overriding nearest with intersection of close gaps at 0 out of 6480 points.
Overriding displacement on features :
   implicit features    : true
   explicit features    : true
   multi-patch features : true

Detected 0 baffle edges out of 12880 edges.
Baffle points     : 0 of which attracted to :
    feature point : 0
    feature edge  : 0
    rest          : 0

Initially selected 0 mesh points out of 6480 for reverse attraction.
Selected 0 mesh points out of 6480 for reverse attraction.
Stringing feature edges : changed 0 points
Attraction:
    linear   : max:(-1.82212e-05 -3.109509e-05 -2.357696e-07) avg:(1.437889e-08 -6.249306e-09 -8.577062e-10)
    feature  : max:(0 0 0) avg:(0 0 0)
Feature analysis : total master points :6480 of which attracted to :
    feature point   : 0
    feature edge    : 0
    nearest surface : 0
    rest            : 6480

--> FOAM Warning : Displacement (2.022882e-06 1.326892e-05 5.971112e-08) at mesh point 0 coord (-0.04535425 -0.2455676 1.000004) points through the surrounding patch faces
Smoothing displacement ...
Iteration 0
Iteration 10
Iteration 20
Iteration 30
Iteration 40
Iteration 50
Iteration 60
Iteration 70
Iteration 80
Iteration 90
Displacement smoothed in = 0.2 s


Moving mesh ...

Iteration 0
Moving mesh using displacement scaling : min:1  max:1
Checking faces in error :
    non-orthogonality > 60  degrees                        : 0
    faces with face pyramid volume < 1e-13                 : 0
    faces with face-decomposition tet quality < 1e-15      : 0
    faces with concavity > 80  degrees                     : 0
    faces with skewness > 4   (internal) or 20  (boundary) : 0
    faces with interpolation weights (0..1)  < 0.02        : 0
    faces with volume ratio of neighbour cells < 0.01      : 0
    faces with face twist < 0.02                           : 0
    faces on cells with determinant < 0.001                : 0
Successfully moved mesh
Moved mesh in = 0.09 s


Repatching faces according to nearest surface ...
Repatched 0 faces in = 0.04 s


Edge intersection testing:
    Number of edges             : 52977
    Number of edges to retest   : 20912
    Number of intersected edges : 6400
Merging 1920 sets of faces.

Edge intersection testing:
    Number of edges             : 51057
    Number of edges to retest   : 7704
    Number of intersected edges : 4480

Undo iteration 0
----------------
Checking faces in error :
    non-orthogonality > 60  degrees                        : 0
    faces with face pyramid volume < 1e-13                 : 0
    faces with face-decomposition tet quality < 1e-15      : 0
    faces with concavity > 80  degrees                     : 0
    faces with skewness > 4   (internal) or 20  (boundary) : 0
    faces with interpolation weights (0..1)  < 0.02        : 0
    faces with volume ratio of neighbour cells < 0.01      : 0
    faces with face twist < 0.02                           : 0
    faces on cells with determinant < 0.001                : 0

Merging all points on surface that
- are used by only two boundary faces and
- make an angle with a cosine of more than -0.08715574.

Removing 1944 straight edge points ...

Edge intersection testing:
    Number of edges             : 51057
    Number of edges to retest   : 7704
    Number of intersected edges : 4480

Undo iteration 0
----------------
Checking faces in error :
    non-orthogonality > 60  degrees                        : 0
    faces with face pyramid volume < 1e-13                 : 0
    faces with face-decomposition tet quality < 1e-15      : 0
    faces with concavity > 80  degrees                     : 0
    faces with skewness > 4   (internal) or 20  (boundary) : 0
    faces with interpolation weights (0..1)  < 0.02        : 0
    faces with volume ratio of neighbour cells < 0.01      : 0
    faces with face twist < 0.02                           : 0
    faces on cells with determinant < 0.001                : 0
Snapped mesh : cells:16040  faces:51057  points:19046
Cells per refinement level:
    0	1320
    1	14720
Writing mesh to time 2
Wrote mesh in = 0.56 s.
Mesh snapped in = 4.75 s.
Layer thickness specified as final layer and expansion ratio.

Shrinking and layer addition phase
----------------------------------

Using mesh parameters 
{
    maxNonOrtho     60;
    maxBoundarySkewness 20;
    maxInternalSkewness 4;
    maxConcave      80;
    minFlatness     0.5;
    minVol          1e-13;
    minTetQuality   1e-15;
    minArea         -1;
    minTwist        0.02;
    minDeterminant  0.001;
    minFaceWeight   0.02;
    minVolRatio     0.01;
    minTriangleTwist -1;
    nSmoothScale    4;
    errorReduction  0.75;
}



Merging all faces of a cell
---------------------------
    - which are on the same patch
    - which make an angle < 110 degrees (cos:-0.3420201)
    - as long as the resulting face doesn't become concave by more than 90 degrees
      (0=straight, 180=fully concave)

Merging 0 sets of faces.

No faces merged ...

Merging all points on surface that
- are used by only two boundary faces and
- make an angle with a cosine of more than -0.3420201.

No straight edges simplified and no points removed ...

Checking mesh manifoldness ...

Checking initial mesh ...
Checking faces in error :
    non-orthogonality > 60  degrees                        : 0
    faces with face pyramid volume < 1e-13                 : 0
    faces with face-decomposition tet quality < 1e-15      : 0
    faces with concavity > 80  degrees                     : 0
    faces with skewness > 4   (internal) or 20  (boundary) : 0
    faces with interpolation weights (0..1)  < 0.02        : 0
    faces with volume ratio of neighbour cells < 0.01      : 0
    faces with face twist < 0.02                           : 0
    faces on cells with determinant < 0.001                : 0
Detected 0 illegal faces (concave, zero area or negative cell pyramid volume)
Duplicating 0 points on faceZones of type boundary

Handling points with inconsistent layer specification ...
dupNonManifoldPoints : Found : 0 non-manifold points (out of 19046)

Adding in total 0 inter-processor patches to handle extrusion of non-manifold processor boundaries.

Handling points with inconsistent layer specification ...

Handling non-manifold points ...

Checking patch manifoldness ...
Outside of local patch is multiply connected across edges or points at 0 points.
Set displacement to zero for all 0 non-manifold points

Handling feature edges ...

Handling cells with warped patch faces ...
Set displacement to zero on 0 warped faces since layer would be > 0.9 of the size of the bounding box.

Growing non-extrusion points by one layer ...
Set displacement to zero for an additional 0 points.

patch     faces    layers avg thickness[m]
                          near-wall overall
-----     -----    ------ --------- -------
inlet     0        3      0         0       
outlet    0        3      0         0       
main_pipe 4480     3      0.0145    0.0479  

Selecting externalDisplacementMeshMover displacementMedialAxis
displacementMedialAxis : Calculating distance to Medial Axis ...
fieldSmoother : Smoothing normals ...
    Iteration 0   residual 0.01527698
displacementMedialAxis : Inserting points on patch boundingbox if angle to nearest layer patch > 55 degrees.
fieldSmoother : Smoothing normals in interior ...
    Iteration 0   residual 0.04239557

Layer addition iteration 0
--------------------------

Determining displacement for added points according to pointNormal ...
Detected 0 points with point normal pointing through faces.
Reset displacement at 0 points to average of surrounding points.

displacementMedialAxis : Smoothing using Medial Axis ...
displacementMedialAxis : Reducing layer thickness at 0 nodes where thickness to medial axis distance is large 
displacementMedialAxis : Removing isolated regions ...
- if partially extruded faces make angle < 55
- if exclusively surrounded by non-extruded faces
displacementMedialAxis : Number of isolated points extrusion stopped : 0
fieldSmoother : Smoothing field ...
    Iteration 0   residual 9.279057e-11
displacementMedialAxis : Moving mesh ...
displacementMedialAxis : Iteration 0
Moving mesh using displacement scaling : min:1  max:1
Checking faces in error :
    non-orthogonality > 60  degrees                        : 0
    faces with face pyramid volume < 1e-13                 : 0
    faces with face-decomposition tet quality < 1e-15      : 0
    faces with concavity > 80  degrees                     : 0
    faces with skewness > 4   (internal) or 20  (boundary) : 0
    faces with interpolation weights (0..1)  < 0.02        : 0
    faces with volume ratio of neighbour cells < 0.01      : 0
    faces with face twist < 0.02                           : 0
    faces on cells with determinant < 0.001                : 0
displacementMedialAxis : Successfully moved mesh
displacementMedialAxis : Finished moving mesh ...
truncateDisplacement : Unextruded 0 faces due to non-consecutive vertices being extruded.
truncateDisplacement : Unextruded 0 faces due to stringed edges with inconsistent extrusion.

Setting up information for layer truncation ...
Detected 0 baffles across faceZones of type internal


Checking mesh with layer ...
Checking faces in error :
    non-orthogonality > 60  degrees                        : 0
    faces with face pyramid volume < 1e-13                 : 0
    faces with face-decomposition tet quality < 1e-15      : 0
    faces with concavity > 80  degrees                     : 0
    faces with skewness > 4   (internal) or 20  (boundary) : 0
    faces with interpolation weights (0..1)  < 0.02        : 0
    faces with volume ratio of neighbour cells < 0.01      : 0
    faces with face twist < 0.02                           : 0
    faces on cells with determinant < 0.001                : 0
Detected 0 illegal faces (concave, zero area or negative cell pyramid volume)
Extruding 4480 out of 4480 faces (100%). Removed extrusion at 0 faces.
Added 13440 out of 13440 cells (100%).
Edge intersection testing:
    Number of edges             : 91545
    Number of edges to retest   : 0
    Number of intersected edges : 17920

patch     faces    layers   overall thickness
                            [m]       [%]
-----     -----    ------   ---       ---
inlet     0        0        0         0       
outlet    0        0        0         0       
main_pipe 4480     3        0.0479    100     

Layer mesh : cells:29480  faces:91545  points:32654
Cells per refinement level:
    0	1320
    1	28160
Writing mesh to time 3
Wrote mesh in = 0.87 s.
Layers added in = 0.87 s.
Checking final mesh ...
Checking faces in error :
    non-orthogonality > 60  degrees                        : 0
    faces with face pyramid volume < 1e-13                 : 0
    faces with face-decomposition tet quality < 1e-15      : 0
    faces with concavity > 80  degrees                     : 0
    faces with skewness > 4   (internal) or 20  (boundary) : 0
    faces with interpolation weights (0..1)  < 0.02        : 0
    faces with volume ratio of neighbour cells < 0.01      : 0
    faces with face twist < 0.02                           : 0
    faces on cells with determinant < 0.001                : 0
Finished meshing without any errors
Finished meshing in = 10.72 s.
End

