/*---------------------------------------------------------------------------*\
| =========                 |                                                 |
| \\      /  F ield         | OpenFOAM: The Open Source CFD Toolbox           |
|  \\    /   O peration     | Version:  v1606+                                |
|   \\  /    A nd           | Web:      www.OpenFOAM.com                      |
|    \\/     M anipulation  |                                                 |
\*---------------------------------------------------------------------------*/
Build  : v1606+
Exec   : simpleFoam
Date   : Aug 12 2016
Time   : 03:34:48
Host   : "default"
PID    : 2185
Case   : /home/ofuser/workingDir/butterfly/indoor_temperature
nProcs : 1
sigFpe : Enabling floating point exception trapping (FOAM_SIGFPE).
fileModificationChecking : Monitoring run-time modified files using timeStampMaster
allowSystemOperations : Allowing user-supplied system call operations

// * * * * * * * * * * * * * * * * * * * * * * * * * * * * * * * * * * * * * //
Create time

Create mesh for time = 0


SIMPLE: convergence criteria
    field k	 tolerance 0.0001
    field U	 tolerance 0.0001
    field epsilon	 tolerance 0.0001
    field p	 tolerance 0.0001

Reading field p

Reading field U

Reading/calculating face flux field phi

Selecting incompressible transport model Newtonian
Selecting turbulence model type RAS
Selecting RAS turbulence model kEpsilon
kEpsilonCoeffs
{
    Cmu             0.09;
    C1              1.44;
    C2              1.92;
    C3              -0.33;
    sigmak          1;
    sigmaEps        1.3;
}

No MRF models present

No finite volume options present


Starting time loop

Time = 1

smoothSolver:  Solving for Ux, Initial residual = 1, Final residual = 0.0394697, No Iterations 3
smoothSolver:  Solving for Uy, Initial residual = 1, Final residual = 0.0466631, No Iterations 4
smoothSolver:  Solving for Uz, Initial residual = 1, Final residual = 0.0806056, No Iterations 3
GAMG:  Solving for p, Initial residual = 1, Final residual = 0.0860188, No Iterations 5
GAMG:  Solving for p, Initial residual = 0.0870073, Final residual = 0.0046336, No Iterations 1
GAMG:  Solving for p, Initial residual = 0.0059142, Final residual = 0.00057078, No Iterations 2
time step continuity errors : sum local = 0.000390713, global = -4.59288e-05, cumulative = -4.59288e-05
smoothSolver:  Solving for epsilon, Initial residual = 0.0796392, Final residual = 0.00467621, No Iterations 3
smoothSolver:  Solving for k, Initial residual = 1, Final residual = 0.0732119, No Iterations 3
ExecutionTime = 25.97 s  ClockTime = 27 s

Time = 2

smoothSolver:  Solving for Ux, Initial residual = 0.428798, Final residual = 0.0268214, No Iterations 4
smoothSolver:  Solving for Uy, Initial residual = 0.649871, Final residual = 0.0446774, No Iterations 4
smoothSolver:  Solving for Uz, Initial residual = 0.657406, Final residual = 0.046565, No Iterations 4
GAMG:  Solving for p, Initial residual = 0.300554, Final residual = 0.0150335, No Iterations 3
GAMG:  Solving for p, Initial residual = 0.182891, Final residual = 0.00944598, No Iterations 2
GAMG:  Solving for p, Initial residual = 0.0308126, Final residual = 0.00154342, No Iterations 3
time step continuity errors : sum local = 0.000268597, global = 6.18128e-06, cumulative = -3.97475e-05
smoothSolver:  Solving for epsilon, Initial residual = 0.110951, Final residual = 0.00784392, No Iterations 3
smoothSolver:  Solving for k, Initial residual = 0.363692, Final residual = 0.0290215, No Iterations 3
ExecutionTime = 37.18 s  ClockTime = 38 s

Time = 3

smoothSolver:  Solving for Ux, Initial residual = 0.178624, Final residual = 0.0110045, No Iterations 4
smoothSolver:  Solving for Uy, Initial residual = 0.214211, Final residual = 0.0134596, No Iterations 4
smoothSolver:  Solving for Uz, Initial residual = 0.225018, Final residual = 0.015634, No Iterations 4
GAMG:  Solving for p, Initial residual = 0.352756, Final residual = 0.0217155, No Iterations 4
GAMG:  Solving for p, Initial residual = 0.121612, Final residual = 0.00919839, No Iterations 1
GAMG:  Solving for p, Initial residual = 0.0125234, Final residual = 0.000921177, No Iterations 3
time step continuity errors : sum local = 0.000528416, global = 1.96049e-05, cumulative = -2.01427e-05
smoothSolver:  Solving for epsilon, Initial residual = 0.0832957, Final residual = 0.0039923, No Iterations 4
smoothSolver:  Solving for k, Initial residual = 0.198498, Final residual = 0.0114722, No Iterations 4
ExecutionTime = 44.72 s  ClockTime = 45 s

Time = 4

smoothSolver:  Solving for Ux, Initial residual = 0.0516754, Final residual = 0.0048841, No Iterations 3
smoothSolver:  Solving for Uy, Initial residual = 0.136599, Final residual = 0.00734293, No Iterations 4
smoothSolver:  Solving for Uz, Initial residual = 0.0837844, Final residual = 0.00549301, No Iterations 4
GAMG:  Solving for p, Initial residual = 0.434599, Final residual = 0.0262473, No Iterations 4
GAMG:  Solving for p, Initial residual = 0.0850385, Final residual = 0.00684663, No Iterations 1
GAMG:  Solving for p, Initial residual = 0.00879027, Final residual = 0.000724679, No Iterations 3
time step continuity errors : sum local = 0.000297659, global = 8.34715e-06, cumulative = -1.17955e-05
smoothSolver:  Solving for epsilon, Initial residual = 0.0355854, Final residual = 0.00168466, No Iterations 4
smoothSolver:  Solving for k, Initial residual = 0.0828483, Final residual = 0.00446925, No Iterations 4
ExecutionTime = 52.44 s  ClockTime = 53 s

Time = 5

smoothSolver:  Solving for Ux, Initial residual = 0.134247, Final residual = 0.00884316, No Iterations 4
smoothSolver:  Solving for Uy, Initial residual = 0.28418, Final residual = 0.018971, No Iterations 4
smoothSolver:  Solving for Uz, Initial residual = 0.266421, Final residual = 0.01879, No Iterations 4
GAMG:  Solving for p, Initial residual = 0.371304, Final residual = 0.0157692, No Iterations 3
GAMG:  Solving for p, Initial residual = 0.149099, Final residual = 0.0134009, No Iterations 1
GAMG:  Solving for p, Initial residual = 0.0206815, Final residual = 0.00132948, No Iterations 3
time step continuity errors : sum local = 0.000243619, global = -1.96627e-05, cumulative = -3.14583e-05
smoothSolver:  Solving for epsilon, Initial residual = 0.0223194, Final residual = 0.00184862, No Iterations 3
smoothSolver:  Solving for k, Initial residual = 0.0640873, Final residual = 0.00511712, No Iterations 3
ExecutionTime = 60.8 s  ClockTime = 62 s

Time = 6

smoothSolver:  Solving for Ux, Initial residual = 0.113579, Final residual = 0.00733493, No Iterations 4
smoothSolver:  Solving for Uy, Initial residual = 0.229831, Final residual = 0.0149627, No Iterations 4
smoothSolver:  Solving for Uz, Initial residual = 0.222522, Final residual = 0.0154168, No Iterations 4
GAMG:  Solving for p, Initial residual = 0.467722, Final residual = 0.0439948, No Iterations 3
GAMG:  Solving for p, Initial residual = 0.118993, Final residual = 0.00594452, No Iterations 2
GAMG:  Solving for p, Initial residual = 0.0155871, Final residual = 0.00143932, No Iterations 2
time step continuity errors : sum local = 0.000558663, global = -2.60036e-05, cumulative = -5.74619e-05
smoothSolver:  Solving for epsilon, Initial residual = 0.0125293, Final residual = 0.000892609, No Iterations 3
smoothSolver:  Solving for k, Initial residual = 0.036444, Final residual = 0.00316276, No Iterations 3
ExecutionTime = 76.23 s  ClockTime = 77 s

Time = 7

smoothSolver:  Solving for Ux, Initial residual = 0.0650356, Final residual = 0.00354186, No Iterations 4
smoothSolver:  Solving for Uy, Initial residual = 0.154068, Final residual = 0.00862959, No Iterations 4
smoothSolver:  Solving for Uz, Initial residual = 0.145181, Final residual = 0.00958304, No Iterations 4
GAMG:  Solving for p, Initial residual = 0.471331, Final residual = 0.0372073, No Iterations 3
GAMG:  Solving for p, Initial residual = 0.0753807, Final residual = 0.00485696, No Iterations 2
GAMG:  Solving for p, Initial residual = 0.0123733, Final residual = 0.00115921, No Iterations 2
time step continuity errors : sum local = 0.00028121, global = -8.77986e-06, cumulative = -6.62417e-05
smoothSolver:  Solving for epsilon, Initial residual = 0.00831714, Final residual = 0.000507276, No Iterations 3
smoothSolver:  Solving for k, Initial residual = 0.0257837, Final residual = 0.00239924, No Iterations 3
ExecutionTime = 89.41 s  ClockTime = 90 s

Time = 8

smoothSolver:  Solving for Ux, Initial residual = 0.100903, Final residual = 0.00677611, No Iterations 4
smoothSolver:  Solving for Uy, Initial residual = 0.18369, Final residual = 0.0126621, No Iterations 4
smoothSolver:  Solving for Uz, Initial residual = 0.176469, Final residual = 0.0124266, No Iterations 4
GAMG:  Solving for p, Initial residual = 0.375007, Final residual = 0.0164961, No Iterations 3
GAMG:  Solving for p, Initial residual = 0.148502, Final residual = 0.0122447, No Iterations 1
GAMG:  Solving for p, Initial residual = 0.0183843, Final residual = 0.00117958, No Iterations 3
time step continuity errors : sum local = 0.000177399, global = 1.16385e-05, cumulative = -5.46032e-05
smoothSolver:  Solving for epsilon, Initial residual = 0.00853503, Final residual = 0.000474829, No Iterations 3
smoothSolver:  Solving for k, Initial residual = 0.0291715, Final residual = 0.00136145, No Iterations 4
ExecutionTime = 96.83 s  ClockTime = 98 s

Time = 9

smoothSolver:  Solving for Ux, Initial residual = 0.0515515, Final residual = 0.00336789, No Iterations 4
smoothSolver:  Solving for Uy, Initial residual = 0.0837392, Final residual = 0.00532294, No Iterations 4
smoothSolver:  Solving for Uz, Initial residual = 0.0656125, Final residual = 0.00445942, No Iterations 4
GAMG:  Solving for p, Initial residual = 0.423682, Final residual = 0.0354056, No Iterations 3
GAMG:  Solving for p, Initial residual = 0.110078, Final residual = 0.0109479, No Iterations 1
GAMG:  Solving for p, Initial residual = 0.0153262, Final residual = 0.0011933, No Iterations 3
time step continuity errors : sum local = 0.00029141, global = 9.66641e-06, cumulative = -4.49368e-05
smoothSolver:  Solving for epsilon, Initial residual = 0.00804369, Final residual = 0.000533758, No Iterations 3
smoothSolver:  Solving for k, Initial residual = 0.029284, Final residual = 0.00139803, No Iterations 4
ExecutionTime = 104.35 s  ClockTime = 105 s

Time = 10

smoothSolver:  Solving for Ux, Initial residual = 0.0272276, Final residual = 0.00149478, No Iterations 4
smoothSolver:  Solving for Uy, Initial residual = 0.103524, Final residual = 0.00653234, No Iterations 4
smoothSolver:  Solving for Uz, Initial residual = 0.0537509, Final residual = 0.0036636, No Iterations 4
GAMG:  Solving for p, Initial residual = 0.484003, Final residual = 0.0257392, No Iterations 3
GAMG:  Solving for p, Initial residual = 0.0678624, Final residual = 0.00482061, No Iterations 2
GAMG:  Solving for p, Initial residual = 0.0118332, Final residual = 0.000529331, No Iterations 3
time step continuity errors : sum local = 8.03364e-05, global = 5.0031e-06, cumulative = -3.99337e-05
smoothSolver:  Solving for epsilon, Initial residual = 0.00777194, Final residual = 0.000578716, No Iterations 3
smoothSolver:  Solving for k, Initial residual = 0.026057, Final residual = 0.00124624, No Iterations 4
ExecutionTime = 111.9 s  ClockTime = 113 s

Time = 11

smoothSolver:  Solving for Ux, Initial residual = 0.0452048, Final residual = 0.00301122, No Iterations 4
smoothSolver:  Solving for Uy, Initial residual = 0.133005, Final residual = 0.00894004, No Iterations 4
smoothSolver:  Solving for Uz, Initial residual = 0.0964401, Final residual = 0.00668206, No Iterations 4
GAMG:  Solving for p, Initial residual = 0.433074, Final residual = 0.019029, No Iterations 3
GAMG:  Solving for p, Initial residual = 0.156821, Final residual = 0.0140495, No Iterations 1
GAMG:  Solving for p, Initial residual = 0.0203954, Final residual = 0.00131156, No Iterations 3
time step continuity errors : sum local = 0.000144244, global = -4.637e-06, cumulative = -4.45707e-05
smoothSolver:  Solving for epsilon, Initial residual = 0.00680376, Final residual = 0.000552321, No Iterations 3
smoothSolver:  Solving for k, Initial residual = 0.0218713, Final residual = 0.0010572, No Iterations 4
ExecutionTime = 120.53 s  ClockTime = 122 s

Time = 12

smoothSolver:  Solving for Ux, Initial residual = 0.0260298, Final residual = 0.0015883, No Iterations 4
smoothSolver:  Solving for Uy, Initial residual = 0.0739531, Final residual = 0.00444175, No Iterations 4
smoothSolver:  Solving for Uz, Initial residual = 0.0481073, Final residual = 0.00319428, No Iterations 4
GAMG:  Solving for p, Initial residual = 0.49383, Final residual = 0.0330948, No Iterations 3
GAMG:  Solving for p, Initial residual = 0.103503, Final residual = 0.00522414, No Iterations 2
GAMG:  Solving for p, Initial residual = 0.013786, Final residual = 0.00128012, No Iterations 2
time step continuity errors : sum local = 0.000210875, global = -7.56689e-06, cumulative = -5.21376e-05
smoothSolver:  Solving for epsilon, Initial residual = 0.00908933, Final residual = 0.00073222, No Iterations 3
smoothSolver:  Solving for k, Initial residual = 0.019929, Final residual = 0.000972179, No Iterations 4
ExecutionTime = 133.96 s  ClockTime = 135 s

Time = 13

smoothSolver:  Solving for Ux, Initial residual = 0.0248801, Final residual = 0.00146958, No Iterations 4
smoothSolver:  Solving for Uy, Initial residual = 0.0686083, Final residual = 0.00415424, No Iterations 4
smoothSolver:  Solving for Uz, Initial residual = 0.039488, Final residual = 0.00265976, No Iterations 4
GAMG:  Solving for p, Initial residual = 0.438113, Final residual = 0.0343909, No Iterations 2
GAMG:  Solving for p, Initial residual = 0.0628211, Final residual = 0.00307452, No Iterations 3
GAMG:  Solving for p, Initial residual = 0.0155732, Final residual = 0.000861874, No Iterations 2
time step continuity errors : sum local = 8.66461e-05, global = -5.63972e-06, cumulative = -5.77773e-05
smoothSolver:  Solving for epsilon, Initial residual = 0.00986108, Final residual = 0.000774734, No Iterations 3
smoothSolver:  Solving for k, Initial residual = 0.0211611, Final residual = 0.00104608, No Iterations 4
bounding k, min: -0.00289441 max: 1.9879 average: 0.231967
ExecutionTime = 147.17 s  ClockTime = 149 s

Time = 14

smoothSolver:  Solving for Ux, Initial residual = 0.03087, Final residual = 0.00204871, No Iterations 4
smoothSolver:  Solving for Uy, Initial residual = 0.0657686, Final residual = 0.0044152, No Iterations 4
smoothSolver:  Solving for Uz, Initial residual = 0.0513695, Final residual = 0.00355959, No Iterations 4
GAMG:  Solving for p, Initial residual = 0.366201, Final residual = 0.0163269, No Iterations 3
GAMG:  Solving for p, Initial residual = 0.142537, Final residual = 0.0117198, No Iterations 1
GAMG:  Solving for p, Initial residual = 0.0167649, Final residual = 0.000985968, No Iterations 3
time step continuity errors : sum local = 7.82435e-05, global = 3.91798e-06, cumulative = -5.38593e-05
smoothSolver:  Solving for epsilon, Initial residual = 0.00962925, Final residual = 0.000784319, No Iterations 3
smoothSolver:  Solving for k, Initial residual = 0.0222351, Final residual = 0.00109454, No Iterations 4
ExecutionTime = 156.64 s  ClockTime = 158 s

Time = 15

smoothSolver:  Solving for Ux, Initial residual = 0.0158442, Final residual = 0.000988219, No Iterations 4
smoothSolver:  Solving for Uy, Initial residual = 0.0403132, Final residual = 0.00242925, No Iterations 4
smoothSolver:  Solving for Uz, Initial residual = 0.0196824, Final residual = 0.00122264, No Iterations 4
GAMG:  Solving for p, Initial residual = 0.362207, Final residual = 0.0242964, No Iterations 3
GAMG:  Solving for p, Initial residual = 0.0950598, Final residual = 0.00911573, No Iterations 1
GAMG:  Solving for p, Initial residual = 0.0127093, Final residual = 0.000944783, No Iterations 3
time step continuity errors : sum local = 9.54e-05, global = 3.29189e-06, cumulative = -5.05674e-05
smoothSolver:  Solving for epsilon, Initial residual = 0.00959921, Final residual = 0.000792084, No Iterations 3
smoothSolver:  Solving for k, Initial residual = 0.0213805, Final residual = 0.00105139, No Iterations 4
ExecutionTime = 171.3 s  ClockTime = 173 s

Time = 16

smoothSolver:  Solving for Ux, Initial residual = 0.01188, Final residual = 0.000707955, No Iterations 4
smoothSolver:  Solving for Uy, Initial residual = 0.0631283, Final residual = 0.00415341, No Iterations 4
smoothSolver:  Solving for Uz, Initial residual = 0.0262258, Final residual = 0.00177003, No Iterations 4
GAMG:  Solving for p, Initial residual = 0.366516, Final residual = 0.026886, No Iterations 2
GAMG:  Solving for p, Initial residual = 0.0505601, Final residual = 0.00238437, No Iterations 3
GAMG:  Solving for p, Initial residual = 0.0125812, Final residual = 0.000678337, No Iterations 2
time step continuity errors : sum local = 4.51051e-05, global = 2.47094e-06, cumulative = -4.80965e-05
smoothSolver:  Solving for epsilon, Initial residual = 0.00937108, Final residual = 0.000793729, No Iterations 3
smoothSolver:  Solving for k, Initial residual = 0.0201939, Final residual = 0.00099867, No Iterations 4
ExecutionTime = 187.57 s  ClockTime = 189 s

Time = 17

smoothSolver:  Solving for Ux, Initial residual = 0.0147198, Final residual = 0.000951377, No Iterations 4
smoothSolver:  Solving for Uy, Initial residual = 0.0572912, Final residual = 0.00382043, No Iterations 4
smoothSolver:  Solving for Uz, Initial residual = 0.0315173, Final residual = 0.00215196, No Iterations 4
GAMG:  Solving for p, Initial residual = 0.332525, Final residual = 0.0146706, No Iterations 3
GAMG:  Solving for p, Initial residual = 0.0945437, Final residual = 0.00854883, No Iterations 1
GAMG:  Solving for p, Initial residual = 0.012146, Final residual = 0.000743362, No Iterations 3
time step continuity errors : sum local = 4.79804e-05, global = -2.33401e-06, cumulative = -5.04305e-05
smoothSolver:  Solving for epsilon, Initial residual = 0.00917821, Final residual = 0.00079896, No Iterations 3
smoothSolver:  Solving for k, Initial residual = 0.0205367, Final residual = 0.00103561, No Iterations 4
bounding k, min: -9.32931e-05 max: 1.36929 average: 0.188766
ExecutionTime = 196.22 s  ClockTime = 198 s

Time = 18

smoothSolver:  Solving for Ux, Initial residual = 0.0100908, Final residual = 0.000557878, No Iterations 4
smoothSolver:  Solving for Uy, Initial residual = 0.0326394, Final residual = 0.00190422, No Iterations 4
smoothSolver:  Solving for Uz, Initial residual = 0.0129546, Final residual = 0.000766694, No Iterations 4
GAMG:  Solving for p, Initial residual = 0.308009, Final residual = 0.0180058, No Iterations 3
GAMG:  Solving for p, Initial residual = 0.0631149, Final residual = 0.00341179, No Iterations 2
GAMG:  Solving for p, Initial residual = 0.00899746, Final residual = 0.000823595, No Iterations 2
time step continuity errors : sum local = 6.22997e-05, global = -2.3165e-06, cumulative = -5.2747e-05
smoothSolver:  Solving for epsilon, Initial residual = 0.00959611, Final residual = 0.000831698, No Iterations 3
smoothSolver:  Solving for k, Initial residual = 0.0215405, Final residual = 0.00110006, No Iterations 4
bounding k, min: -0.00730079 max: 1.2487 average: 0.179995
ExecutionTime = 203.76 s  ClockTime = 205 s

Time = 19

smoothSolver:  Solving for Ux, Initial residual = 0.0110521, Final residual = 0.000649567, No Iterations 4
smoothSolver:  Solving for Uy, Initial residual = 0.0310993, Final residual = 0.00188144, No Iterations 4
smoothSolver:  Solving for Uz, Initial residual = 0.0146826, Final residual = 0.000956742, No Iterations 4
GAMG:  Solving for p, Initial residual = 0.250355, Final residual = 0.0196711, No Iterations 2
GAMG:  Solving for p, Initial residual = 0.0467469, Final residual = 0.00398598, No Iterations 2
GAMG:  Solving for p, Initial residual = 0.0111364, Final residual = 0.000876738, No Iterations 2
time step continuity errors : sum local = 4.77672e-05, global = -2.72124e-06, cumulative = -5.54682e-05
smoothSolver:  Solving for epsilon, Initial residual = 0.010066, Final residual = 0.00085663, No Iterations 3
smoothSolver:  Solving for k, Initial residual = 0.0224315, Final residual = 0.00114971, No Iterations 4
bounding k, min: -0.00305707 max: 1.13992 average: 0.171997
ExecutionTime = 211.22 s  ClockTime = 213 s

Time = 20

smoothSolver:  Solving for Ux, Initial residual = 0.0113379, Final residual = 0.000704722, No Iterations 4
smoothSolver:  Solving for Uy, Initial residual = 0.0285724, Final residual = 0.00172852, No Iterations 4
smoothSolver:  Solving for Uz, Initial residual = 0.0159098, Final residual = 0.00105138, No Iterations 4
GAMG:  Solving for p, Initial residual = 0.220769, Final residual = 0.00941068, No Iterations 3
GAMG:  Solving for p, Initial residual = 0.0821312, Final residual = 0.0064795, No Iterations 1
GAMG:  Solving for p, Initial residual = 0.00932351, Final residual = 0.000504322, No Iterations 3
time step continuity errors : sum local = 2.48163e-05, global = 1.52078e-06, cumulative = -5.39474e-05
smoothSolver:  Solving for epsilon, Initial residual = 0.0102702, Final residual = 0.00085809, No Iterations 3
smoothSolver:  Solving for k, Initial residual = 0.0231169, Final residual = 0.00119021, No Iterations 4
bounding k, min: -0.00836132 max: 1.04819 average: 0.164924
ExecutionTime = 220.38 s  ClockTime = 222 s

Time = 21

smoothSolver:  Solving for Ux, Initial residual = 0.00783409, Final residual = 0.000437201, No Iterations 4
smoothSolver:  Solving for Uy, Initial residual = 0.0313034, Final residual = 0.00195937, No Iterations 4
smoothSolver:  Solving for Uz, Initial residual = 0.0112367, Final residual = 0.000678272, No Iterations 4
GAMG:  Solving for p, Initial residual = 0.204059, Final residual = 0.00949711, No Iterations 3
GAMG:  Solving for p, Initial residual = 0.0500482, Final residual = 0.00465675, No Iterations 1
GAMG:  Solving for p, Initial residual = 0.00657322, Final residual = 0.000440005, No Iterations 3
time step continuity errors : sum local = 2.40453e-05, global = 1.04362e-06, cumulative = -5.29038e-05
smoothSolver:  Solving for epsilon, Initial residual = 0.0103794, Final residual = 0.00085955, No Iterations 3
smoothSolver:  Solving for k, Initial residual = 0.0243008, Final residual = 0.0012534, No Iterations 4
bounding k, min: -0.0106118 max: 0.959982 average: 0.158689
ExecutionTime = 241.43 s  ClockTime = 244 s

Time = 22

smoothSolver:  Solving for Ux, Initial residual = 0.00674301, Final residual = 0.000362752, No Iterations 4
smoothSolver:  Solving for Uy, Initial residual = 0.035906, Final residual = 0.00232174, No Iterations 4
smoothSolver:  Solving for Uz, Initial residual = 0.0135214, Final residual = 0.000849065, No Iterations 4
GAMG:  Solving for p, Initial residual = 0.231774, Final residual = 0.0184297, No Iterations 2
GAMG:  Solving for p, Initial residual = 0.0417357, Final residual = 0.00288609, No Iterations 2
GAMG:  Solving for p, Initial residual = 0.00831945, Final residual = 0.000604813, No Iterations 2
time step continuity errors : sum local = 2.86387e-05, global = 1.135e-06, cumulative = -5.17688e-05
smoothSolver:  Solving for epsilon, Initial residual = 0.0105326, Final residual = 0.000886562, No Iterations 3
smoothSolver:  Solving for k, Initial residual = 0.0260683, Final residual = 0.00133063, No Iterations 4
bounding k, min: -0.00775477 max: 0.876626 average: 0.153155
ExecutionTime = 260.87 s  ClockTime = 263 s

Time = 23

smoothSolver:  Solving for Ux, Initial residual = 0.0072849, Final residual = 0.000389757, No Iterations 4
smoothSolver:  Solving for Uy, Initial residual = 0.0304804, Final residual = 0.0019348, No Iterations 4
smoothSolver:  Solving for Uz, Initial residual = 0.0127611, Final residual = 0.00081647, No Iterations 4
GAMG:  Solving for p, Initial residual = 0.216501, Final residual = 0.0205582, No Iterations 2
GAMG:  Solving for p, Initial residual = 0.0499972, Final residual = 0.00321008, No Iterations 2
GAMG:  Solving for p, Initial residual = 0.00944525, Final residual = 0.000667795, No Iterations 2
time step continuity errors : sum local = 3.66378e-05, global = -2.44191e-06, cumulative = -5.42107e-05
smoothSolver:  Solving for epsilon, Initial residual = 0.0109003, Final residual = 0.000933697, No Iterations 3
smoothSolver:  Solving for k, Initial residual = 0.0276108, Final residual = 0.00138885, No Iterations 4
bounding k, min: -0.00798776 max: 0.803348 average: 0.148263
ExecutionTime = 280.33 s  ClockTime = 283 s

Time = 24

smoothSolver:  Solving for Ux, Initial residual = 0.00676208, Final residual = 0.0003309, No Iterations 4
smoothSolver:  Solving for Uy, Initial residual = 0.0248474, Final residual = 0.0014538, No Iterations 4
smoothSolver:  Solving for Uz, Initial residual = 0.00774211, Final residual = 0.000441399, No Iterations 4
GAMG:  Solving for p, Initial residual = 0.183198, Final residual = 0.0153602, No Iterations 2
GAMG:  Solving for p, Initial residual = 0.034239, Final residual = 0.00258067, No Iterations 2
GAMG:  Solving for p, Initial residual = 0.00749313, Final residual = 0.000578821, No Iterations 2
time step continuity errors : sum local = 3.37763e-05, global = -1.60009e-06, cumulative = -5.58108e-05
smoothSolver:  Solving for epsilon, Initial residual = 0.0112427, Final residual = 0.000963824, No Iterations 3
smoothSolver:  Solving for k, Initial residual = 0.02855, Final residual = 0.0014121, No Iterations 4
bounding k, min: -0.00688761 max: 0.743481 average: 0.144011
ExecutionTime = 292 s  ClockTime = 294 s

Time = 25

smoothSolver:  Solving for Ux, Initial residual = 0.00704082, Final residual = 0.000362011, No Iterations 4
smoothSolver:  Solving for Uy, Initial residual = 0.0243821, Final residual = 0.00141723, No Iterations 4
smoothSolver:  Solving for Uz, Initial residual = 0.00863366, Final residual = 0.000524221, No Iterations 4
GAMG:  Solving for p, Initial residual = 0.157881, Final residual = 0.0113954, No Iterations 2
GAMG:  Solving for p, Initial residual = 0.0329529, Final residual = 0.00192319, No Iterations 2
GAMG:  Solving for p, Initial residual = 0.00556846, Final residual = 0.000406509, No Iterations 2
time step continuity errors : sum local = 2.14361e-05, global = -5.78965e-07, cumulative = -5.63898e-05
smoothSolver:  Solving for epsilon, Initial residual = 0.0113043, Final residual = 0.000961616, No Iterations 3
smoothSolver:  Solving for k, Initial residual = 0.0289939, Final residual = 0.00140625, No Iterations 4
bounding k, min: -0.00570294 max: 0.687692 average: 0.140415
ExecutionTime = 306.67 s  ClockTime = 309 s

Time = 26

smoothSolver:  Solving for Ux, Initial residual = 0.00727385, Final residual = 0.000373126, No Iterations 4
smoothSolver:  Solving for Uy, Initial residual = 0.0250092, Final residual = 0.0014841, No Iterations 4
smoothSolver:  Solving for Uz, Initial residual = 0.00944566, Final residual = 0.000575686, No Iterations 4
GAMG:  Solving for p, Initial residual = 0.155518, Final residual = 0.0141049, No Iterations 2
GAMG:  Solving for p, Initial residual = 0.0418982, Final residual = 0.00212669, No Iterations 2
GAMG:  Solving for p, Initial residual = 0.00704626, Final residual = 0.000362002, No Iterations 2
time step continuity errors : sum local = 1.78568e-05, global = 1.57244e-06, cumulative = -5.48173e-05
smoothSolver:  Solving for epsilon, Initial residual = 0.0111575, Final residual = 0.00094035, No Iterations 3
smoothSolver:  Solving for k, Initial residual = 0.0293427, Final residual = 0.00138845, No Iterations 4
bounding k, min: -0.00469777 max: 0.637384 average: 0.137431
ExecutionTime = 325.31 s  ClockTime = 328 s

Time = 27

smoothSolver:  Solving for Ux, Initial residual = 0.00669288, Final residual = 0.000330288, No Iterations 4
smoothSolver:  Solving for Uy, Initial residual = 0.0260948, Final residual = 0.00156852, No Iterations 4
smoothSolver:  Solving for Uz, Initial residual = 0.00905522, Final residual = 0.000528451, No Iterations 4
GAMG:  Solving for p, Initial residual = 0.158035, Final residual = 0.0109553, No Iterations 2
GAMG:  Solving for p, Initial residual = 0.0286074, Final residual = 0.00160332, No Iterations 2
GAMG:  Solving for p, Initial residual = 0.00505744, Final residual = 0.000271417, No Iterations 2
time step continuity errors : sum local = 1.42275e-05, global = 1.08672e-06, cumulative = -5.37306e-05
smoothSolver:  Solving for epsilon, Initial residual = 0.0110072, Final residual = 0.000914159, No Iterations 3
smoothSolver:  Solving for k, Initial residual = 0.0297201, Final residual = 0.00136734, No Iterations 4
bounding k, min: -0.00380218 max: 0.590899 average: 0.134956
ExecutionTime = 334.48 s  ClockTime = 337 s

Time = 28

smoothSolver:  Solving for Ux, Initial residual = 0.00611516, Final residual = 0.000293636, No Iterations 4
smoothSolver:  Solving for Uy, Initial residual = 0.0264768, Final residual = 0.0015971, No Iterations 4
smoothSolver:  Solving for Uz, Initial residual = 0.00942685, Final residual = 0.000539573, No Iterations 4
GAMG:  Solving for p, Initial residual = 0.164895, Final residual = 0.0116842, No Iterations 2
GAMG:  Solving for p, Initial residual = 0.030336, Final residual = 0.00182862, No Iterations 2
GAMG:  Solving for p, Initial residual = 0.00496983, Final residual = 0.000343953, No Iterations 2
time step continuity errors : sum local = 1.89703e-05, global = 1.04602e-06, cumulative = -5.26846e-05
smoothSolver:  Solving for epsilon, Initial residual = 0.0109143, Final residual = 0.000882293, No Iterations 3
smoothSolver:  Solving for k, Initial residual = 0.0299803, Final residual = 0.00298229, No Iterations 3
bounding k, min: -0.00274629 max: 0.555315 average: 0.133011
ExecutionTime = 345.74 s  ClockTime = 348 s

Time = 29

smoothSolver:  Solving for Ux, Initial residual = 0.00627418, Final residual = 0.000296076, No Iterations 4
smoothSolver:  Solving for Uy, Initial residual = 0.0253478, Final residual = 0.00149939, No Iterations 4
smoothSolver:  Solving for Uz, Initial residual = 0.0086637, Final residual = 0.000485677, No Iterations 4
GAMG:  Solving for p, Initial residual = 0.160297, Final residual = 0.0110114, No Iterations 2
GAMG:  Solving for p, Initial residual = 0.0290843, Final residual = 0.00173531, No Iterations 2
GAMG:  Solving for p, Initial residual = 0.0045946, Final residual = 0.000364894, No Iterations 2
time step continuity errors : sum local = 2.22942e-05, global = -1.1326e-06, cumulative = -5.38172e-05
smoothSolver:  Solving for epsilon, Initial residual = 0.0106065, Final residual = 0.00083052, No Iterations 3
smoothSolver:  Solving for k, Initial residual = 0.029772, Final residual = 0.00287687, No Iterations 3
bounding k, min: -0.00170289 max: 0.525588 average: 0.131393
ExecutionTime = 369.7 s  ClockTime = 373 s

Time = 30

smoothSolver:  Solving for Ux, Initial residual = 0.00638077, Final residual = 0.000628883, No Iterations 3
smoothSolver:  Solving for Uy, Initial residual = 0.0244836, Final residual = 0.00142087, No Iterations 4
smoothSolver:  Solving for Uz, Initial residual = 0.00782149, Final residual = 0.000427123, No Iterations 4
GAMG:  Solving for p, Initial residual = 0.147325, Final residual = 0.00861198, No Iterations 2
GAMG:  Solving for p, Initial residual = 0.0231109, Final residual = 0.0014204, No Iterations 2
GAMG:  Solving for p, Initial residual = 0.00372975, Final residual = 0.000301797, No Iterations 2
time step continuity errors : sum local = 1.89118e-05, global = -7.56991e-07, cumulative = -5.45742e-05
smoothSolver:  Solving for epsilon, Initial residual = 0.0100987, Final residual = 0.000766137, No Iterations 3
smoothSolver:  Solving for k, Initial residual = 0.0291422, Final residual = 0.00274927, No Iterations 3
bounding k, min: -0.000724368 max: 0.498703 average: 0.13006
ExecutionTime = 377.98 s  ClockTime = 381 s

Time = 31

smoothSolver:  Solving for Ux, Initial residual = 0.00656479, Final residual = 0.00065007, No Iterations 3
smoothSolver:  Solving for Uy, Initial residual = 0.024266, Final residual = 0.00140955, No Iterations 4
smoothSolver:  Solving for Uz, Initial residual = 0.00793682, Final residual = 0.000433678, No Iterations 4
GAMG:  Solving for p, Initial residual = 0.146575, Final residual = 0.00814628, No Iterations 2
GAMG:  Solving for p, Initial residual = 0.0217665, Final residual = 0.00127142, No Iterations 2
GAMG:  Solving for p, Initial residual = 0.00337447, Final residual = 0.000253182, No Iterations 2
time step continuity errors : sum local = 1.56888e-05, global = 3.47085e-07, cumulative = -5.42271e-05
smoothSolver:  Solving for epsilon, Initial residual = 0.00943544, Final residual = 0.000696058, No Iterations 3
smoothSolver:  Solving for k, Initial residual = 0.0283387, Final residual = 0.00261524, No Iterations 3
ExecutionTime = 386.43 s  ClockTime = 389 s

Time = 32

smoothSolver:  Solving for Ux, Initial residual = 0.00664998, Final residual = 0.000662883, No Iterations 3
smoothSolver:  Solving for Uy, Initial residual = 0.0240631, Final residual = 0.00140946, No Iterations 4
smoothSolver:  Solving for Uz, Initial residual = 0.00813686, Final residual = 0.000437462, No Iterations 4
GAMG:  Solving for p, Initial residual = 0.152322, Final residual = 0.00960972, No Iterations 2
GAMG:  Solving for p, Initial residual = 0.0240092, Final residual = 0.00139265, No Iterations 2
GAMG:  Solving for p, Initial residual = 0.00432932, Final residual = 0.000229887, No Iterations 2
time step continuity errors : sum local = 1.42101e-05, global = 8.81053e-07, cumulative = -5.33461e-05
smoothSolver:  Solving for epsilon, Initial residual = 0.00876937, Final residual = 0.000630521, No Iterations 3
smoothSolver:  Solving for k, Initial residual = 0.0275655, Final residual = 0.00249313, No Iterations 3
ExecutionTime = 399.84 s  ClockTime = 403 s

Time = 33

smoothSolver:  Solving for Ux, Initial residual = 0.00649773, Final residual = 0.000642655, No Iterations 3
smoothSolver:  Solving for Uy, Initial residual = 0.0237274, Final residual = 0.00138808, No Iterations 4
smoothSolver:  Solving for Uz, Initial residual = 0.00801247, Final residual = 0.00041581, No Iterations 4
GAMG:  Solving for p, Initial residual = 0.152378, Final residual = 0.00965453, No Iterations 2
GAMG:  Solving for p, Initial residual = 0.0232495, Final residual = 0.0014021, No Iterations 2
GAMG:  Solving for p, Initial residual = 0.00409609, Final residual = 0.000232502, No Iterations 2
time step continuity errors : sum local = 1.47378e-05, global = 8.74895e-07, cumulative = -5.24712e-05
smoothSolver:  Solving for epsilon, Initial residual = 0.00821733, Final residual = 0.000575872, No Iterations 3
smoothSolver:  Solving for k, Initial residual = 0.0269147, Final residual = 0.00238887, No Iterations 3
ExecutionTime = 418.88 s  ClockTime = 422 s

Time = 34

smoothSolver:  Solving for Ux, Initial residual = 0.00626668, Final residual = 0.000619297, No Iterations 3
smoothSolver:  Solving for Uy, Initial residual = 0.0234685, Final residual = 0.00136588, No Iterations 4
smoothSolver:  Solving for Uz, Initial residual = 0.00791074, Final residual = 0.000399756, No Iterations 4
GAMG:  Solving for p, Initial residual = 0.148403, Final residual = 0.0086609, No Iterations 2
GAMG:  Solving for p, Initial residual = 0.0216223, Final residual = 0.00149769, No Iterations 2
GAMG:  Solving for p, Initial residual = 0.00344614, Final residual = 0.000260963, No Iterations 2
time step continuity errors : sum local = 1.72101e-05, global = 7.44115e-07, cumulative = -5.1727e-05
smoothSolver:  Solving for epsilon, Initial residual = 0.00776952, Final residual = 0.00053294, No Iterations 3
smoothSolver:  Solving for k, Initial residual = 0.0262884, Final residual = 0.00229977, No Iterations 3
ExecutionTime = 429.88 s  ClockTime = 433 s

Time = 35

smoothSolver:  Solving for Ux, Initial residual = 0.00620462, Final residual = 0.000619307, No Iterations 3
smoothSolver:  Solving for Uy, Initial residual = 0.0231247, Final residual = 0.00133455, No Iterations 4
smoothSolver:  Solving for Uz, Initial residual = 0.00771377, Final residual = 0.000382587, No Iterations 4
GAMG:  Solving for p, Initial residual = 0.143083, Final residual = 0.00714551, No Iterations 2
GAMG:  Solving for p, Initial residual = 0.0194741, Final residual = 0.00111136, No Iterations 2
GAMG:  Solving for p, Initial residual = 0.00283125, Final residual = 0.000222225, No Iterations 2
time step continuity errors : sum local = 1.50725e-05, global = -5.90342e-07, cumulative = -5.23174e-05
smoothSolver:  Solving for epsilon, Initial residual = 0.00734879, Final residual = 0.000499362, No Iterations 3
smoothSolver:  Solving for k, Initial residual = 0.0256295, Final residual = 0.00221968, No Iterations 3
ExecutionTime = 438.11 s  ClockTime = 441 s

Time = 36

smoothSolver:  Solving for Ux, Initial residual = 0.00609525, Final residual = 0.000293002, No Iterations 4
smoothSolver:  Solving for Uy, Initial residual = 0.0226872, Final residual = 0.00129891, No Iterations 4
smoothSolver:  Solving for Uz, Initial residual = 0.00747369, Final residual = 0.00036856, No Iterations 4
GAMG:  Solving for p, Initial residual = 0.142376, Final residual = 0.00647432, No Iterations 2
GAMG:  Solving for p, Initial residual = 0.0173572, Final residual = 0.000981198, No Iterations 2
GAMG:  Solving for p, Initial residual = 0.00267495, Final residual = 0.000197156, No Iterations 2
time step continuity errors : sum local = 1.35063e-05, global = -5.35661e-07, cumulative = -5.2853e-05
smoothSolver:  Solving for epsilon, Initial residual = 0.00697116, Final residual = 0.000472398, No Iterations 3
smoothSolver:  Solving for k, Initial residual = 0.02497, Final residual = 0.00214601, No Iterations 3
ExecutionTime = 451.6 s  ClockTime = 455 s

Time = 37

smoothSolver:  Solving for Ux, Initial residual = 0.00586488, Final residual = 0.000283568, No Iterations 4
smoothSolver:  Solving for Uy, Initial residual = 0.0221678, Final residual = 0.00126764, No Iterations 4
smoothSolver:  Solving for Uz, Initial residual = 0.00747089, Final residual = 0.000369501, No Iterations 4
GAMG:  Solving for p, Initial residual = 0.143369, Final residual = 0.00714207, No Iterations 2
GAMG:  Solving for p, Initial residual = 0.0177433, Final residual = 0.00109279, No Iterations 2
GAMG:  Solving for p, Initial residual = 0.00306504, Final residual = 0.00020048, No Iterations 2
time step continuity errors : sum local = 1.36865e-05, global = 4.80227e-07, cumulative = -5.23728e-05
smoothSolver:  Solving for epsilon, Initial residual = 0.00662481, Final residual = 0.000450399, No Iterations 3
smoothSolver:  Solving for k, Initial residual = 0.0242345, Final residual = 0.00207639, No Iterations 3
ExecutionTime = 469.27 s  ClockTime = 475 s

Time = 38

smoothSolver:  Solving for Ux, Initial residual = 0.00566463, Final residual = 0.000275749, No Iterations 4
smoothSolver:  Solving for Uy, Initial residual = 0.0213937, Final residual = 0.00122796, No Iterations 4
smoothSolver:  Solving for Uz, Initial residual = 0.00751542, Final residual = 0.000370395, No Iterations 4
GAMG:  Solving for p, Initial residual = 0.142648, Final residual = 0.00774769, No Iterations 2
GAMG:  Solving for p, Initial residual = 0.0184057, Final residual = 0.00113237, No Iterations 2
GAMG:  Solving for p, Initial residual = 0.00355665, Final residual = 0.000181149, No Iterations 2
time step continuity errors : sum local = 1.23133e-05, global = 6.78082e-07, cumulative = -5.16947e-05
smoothSolver:  Solving for epsilon, Initial residual = 0.00632839, Final residual = 0.00043244, No Iterations 3
smoothSolver:  Solving for k, Initial residual = 0.023495, Final residual = 0.00201191, No Iterations 3
ExecutionTime = 479.63 s  ClockTime = 485 s

Time = 39

smoothSolver:  Solving for Ux, Initial residual = 0.00549603, Final residual = 0.000270227, No Iterations 4
smoothSolver:  Solving for Uy, Initial residual = 0.0204771, Final residual = 0.00118157, No Iterations 4
smoothSolver:  Solving for Uz, Initial residual = 0.00734244, Final residual = 0.000357759, No Iterations 4
GAMG:  Solving for p, Initial residual = 0.139017, Final residual = 0.00760918, No Iterations 2
GAMG:  Solving for p, Initial residual = 0.0178923, Final residual = 0.00109161, No Iterations 2
GAMG:  Solving for p, Initial residual = 0.00331137, Final residual = 0.000172669, No Iterations 2
time step continuity errors : sum local = 1.17481e-05, global = 6.70315e-07, cumulative = -5.10244e-05
smoothSolver:  Solving for epsilon, Initial residual = 0.00608563, Final residual = 0.00041737, No Iterations 3
smoothSolver:  Solving for k, Initial residual = 0.0227651, Final residual = 0.00195189, No Iterations 3
ExecutionTime = 487.14 s  ClockTime = 493 s

Time = 40

smoothSolver:  Solving for Ux, Initial residual = 0.0053656, Final residual = 0.00026832, No Iterations 4
smoothSolver:  Solving for Uy, Initial residual = 0.0196196, Final residual = 0.00113415, No Iterations 4
smoothSolver:  Solving for Uz, Initial residual = 0.0070933, Final residual = 0.000343103, No Iterations 4
GAMG:  Solving for p, Initial residual = 0.131999, Final residual = 0.00658481, No Iterations 2
GAMG:  Solving for p, Initial residual = 0.0163151, Final residual = 0.000996367, No Iterations 2
GAMG:  Solving for p, Initial residual = 0.00267337, Final residual = 0.000161113, No Iterations 2
time step continuity errors : sum local = 1.10135e-05, global = 5.37099e-07, cumulative = -5.04873e-05
smoothSolver:  Solving for epsilon, Initial residual = 0.00587871, Final residual = 0.000404567, No Iterations 3
smoothSolver:  Solving for k, Initial residual = 0.0220706, Final residual = 0.00189483, No Iterations 3
ExecutionTime = 494.73 s  ClockTime = 501 s

Time = 41

smoothSolver:  Solving for Ux, Initial residual = 0.0052369, Final residual = 0.000266292, No Iterations 4
smoothSolver:  Solving for Uy, Initial residual = 0.0188307, Final residual = 0.0010874, No Iterations 4
smoothSolver:  Solving for Uz, Initial residual = 0.00691903, Final residual = 0.00033386, No Iterations 4
GAMG:  Solving for p, Initial residual = 0.125963, Final residual = 0.00560149, No Iterations 2
GAMG:  Solving for p, Initial residual = 0.0149109, Final residual = 0.000827657, No Iterations 2
GAMG:  Solving for p, Initial residual = 0.00223487, Final residual = 0.00014289, No Iterations 2
time step continuity errors : sum local = 9.79092e-06, global = -3.42416e-07, cumulative = -5.08297e-05
smoothSolver:  Solving for epsilon, Initial residual = 0.0056899, Final residual = 0.00039333, No Iterations 3
smoothSolver:  Solving for k, Initial residual = 0.0213549, Final residual = 0.00183688, No Iterations 3
ExecutionTime = 502.49 s  ClockTime = 508 s

Time = 42

smoothSolver:  Solving for Ux, Initial residual = 0.00504467, Final residual = 0.00026106, No Iterations 4
smoothSolver:  Solving for Uy, Initial residual = 0.0180804, Final residual = 0.00104448, No Iterations 4
smoothSolver:  Solving for Uz, Initial residual = 0.00681642, Final residual = 0.000328959, No Iterations 4
GAMG:  Solving for p, Initial residual = 0.12076, Final residual = 0.00536026, No Iterations 2
GAMG:  Solving for p, Initial residual = 0.014505, Final residual = 0.000783731, No Iterations 2
GAMG:  Solving for p, Initial residual = 0.00218777, Final residual = 0.000132047, No Iterations 2
time step continuity errors : sum local = 9.04711e-06, global = -3.25829e-07, cumulative = -5.11556e-05
smoothSolver:  Solving for epsilon, Initial residual = 0.00551679, Final residual = 0.000382563, No Iterations 3
smoothSolver:  Solving for k, Initial residual = 0.0206074, Final residual = 0.00177669, No Iterations 3
ExecutionTime = 515.71 s  ClockTime = 522 s

Time = 43

smoothSolver:  Solving for Ux, Initial residual = 0.00481745, Final residual = 0.000253675, No Iterations 4
smoothSolver:  Solving for Uy, Initial residual = 0.0173615, Final residual = 0.00100693, No Iterations 4
smoothSolver:  Solving for Uz, Initial residual = 0.00671561, Final residual = 0.000325658, No Iterations 4
GAMG:  Solving for p, Initial residual = 0.116491, Final residual = 0.00555769, No Iterations 2
GAMG:  Solving for p, Initial residual = 0.0147035, Final residual = 0.000817132, No Iterations 2
GAMG:  Solving for p, Initial residual = 0.00230752, Final residual = 0.000138117, No Iterations 2
time step continuity errors : sum local = 9.45507e-06, global = 3.53498e-07, cumulative = -5.08021e-05
smoothSolver:  Solving for epsilon, Initial residual = 0.00533504, Final residual = 0.000371436, No Iterations 3
smoothSolver:  Solving for k, Initial residual = 0.0198256, Final residual = 0.00171588, No Iterations 3
ExecutionTime = 529.96 s  ClockTime = 536 s

Time = 44

smoothSolver:  Solving for Ux, Initial residual = 0.00463231, Final residual = 0.000247076, No Iterations 4
smoothSolver:  Solving for Uy, Initial residual = 0.0166974, Final residual = 0.000975199, No Iterations 4
smoothSolver:  Solving for Uz, Initial residual = 0.00658358, Final residual = 0.00032157, No Iterations 4
GAMG:  Solving for p, Initial residual = 0.112384, Final residual = 0.00567955, No Iterations 2
GAMG:  Solving for p, Initial residual = 0.0147239, Final residual = 0.000827812, No Iterations 2
GAMG:  Solving for p, Initial residual = 0.00242908, Final residual = 0.00013521, No Iterations 2
time step continuity errors : sum local = 9.24692e-06, global = 4.21996e-07, cumulative = -5.03801e-05
smoothSolver:  Solving for epsilon, Initial residual = 0.00514204, Final residual = 0.00035998, No Iterations 3
smoothSolver:  Solving for k, Initial residual = 0.0190141, Final residual = 0.00165555, No Iterations 3
ExecutionTime = 539.08 s  ClockTime = 545 s

Time = 45

smoothSolver:  Solving for Ux, Initial residual = 0.00448491, Final residual = 0.000242199, No Iterations 4
smoothSolver:  Solving for Uy, Initial residual = 0.0161061, Final residual = 0.00094892, No Iterations 4
smoothSolver:  Solving for Uz, Initial residual = 0.00642013, Final residual = 0.000316175, No Iterations 4
GAMG:  Solving for p, Initial residual = 0.107742, Final residual = 0.00548142, No Iterations 2
GAMG:  Solving for p, Initial residual = 0.0142747, Final residual = 0.000782232, No Iterations 2
GAMG:  Solving for p, Initial residual = 0.00231813, Final residual = 0.000126727, No Iterations 2
time step continuity errors : sum local = 8.67511e-06, global = 4.34252e-07, cumulative = -4.99458e-05
smoothSolver:  Solving for epsilon, Initial residual = 0.00494387, Final residual = 0.000348453, No Iterations 3
smoothSolver:  Solving for k, Initial residual = 0.0182175, Final residual = 0.00159499, No Iterations 3
ExecutionTime = 547.56 s  ClockTime = 554 s

Time = 46

smoothSolver:  Solving for Ux, Initial residual = 0.00435568, Final residual = 0.000238787, No Iterations 4
smoothSolver:  Solving for Uy, Initial residual = 0.0156021, Final residual = 0.000925545, No Iterations 4
smoothSolver:  Solving for Uz, Initial residual = 0.00624231, Final residual = 0.000310869, No Iterations 4
GAMG:  Solving for p, Initial residual = 0.10287, Final residual = 0.00507064, No Iterations 2
GAMG:  Solving for p, Initial residual = 0.0136291, Final residual = 0.000717321, No Iterations 2
GAMG:  Solving for p, Initial residual = 0.00208843, Final residual = 0.00011867, No Iterations 2
time step continuity errors : sum local = 8.14909e-06, global = 3.74438e-07, cumulative = -4.95714e-05
smoothSolver:  Solving for epsilon, Initial residual = 0.00474422, Final residual = 0.000336913, No Iterations 3
smoothSolver:  Solving for k, Initial residual = 0.0174256, Final residual = 0.00153466, No Iterations 3
ExecutionTime = 561.02 s  ClockTime = 567 s

Time = 47

smoothSolver:  Solving for Ux, Initial residual = 0.00423061, Final residual = 0.000235985, No Iterations 4
smoothSolver:  Solving for Uy, Initial residual = 0.0151323, Final residual = 0.000903388, No Iterations 4
smoothSolver:  Solving for Uz, Initial residual = 0.00606932, Final residual = 0.000305748, No Iterations 4
GAMG:  Solving for p, Initial residual = 0.0986832, Final residual = 0.00468955, No Iterations 2
GAMG:  Solving for p, Initial residual = 0.0131591, Final residual = 0.00066192, No Iterations 2
GAMG:  Solving for p, Initial residual = 0.00190359, Final residual = 0.000113595, No Iterations 2
time step continuity errors : sum local = 7.83147e-06, global = 2.79849e-07, cumulative = -4.92915e-05
smoothSolver:  Solving for epsilon, Initial residual = 0.00455519, Final residual = 0.000325627, No Iterations 3
smoothSolver:  Solving for k, Initial residual = 0.0166491, Final residual = 0.00147618, No Iterations 3
ExecutionTime = 576.93 s  ClockTime = 583 s

Time = 48

smoothSolver:  Solving for Ux, Initial residual = 0.00409934, Final residual = 0.00023293, No Iterations 4
smoothSolver:  Solving for Uy, Initial residual = 0.0146766, Final residual = 0.000882055, No Iterations 4
smoothSolver:  Solving for Uz, Initial residual = 0.00590788, Final residual = 0.000301026, No Iterations 4
GAMG:  Solving for p, Initial residual = 0.0950349, Final residual = 0.00446049, No Iterations 2
GAMG:  Solving for p, Initial residual = 0.0128447, Final residual = 0.000622579, No Iterations 2
GAMG:  Solving for p, Initial residual = 0.00180144, Final residual = 0.000108772, No Iterations 2
time step continuity errors : sum local = 7.53081e-06, global = 2.75543e-07, cumulative = -4.9016e-05
smoothSolver:  Solving for epsilon, Initial residual = 0.00437205, Final residual = 0.000314814, No Iterations 3
smoothSolver:  Solving for k, Initial residual = 0.0158825, Final residual = 0.00141996, No Iterations 3
ExecutionTime = 588.19 s  ClockTime = 595 s

Time = 49

smoothSolver:  Solving for Ux, Initial residual = 0.00397007, Final residual = 0.000229772, No Iterations 4
smoothSolver:  Solving for Uy, Initial residual = 0.0142315, Final residual = 0.000862274, No Iterations 4
smoothSolver:  Solving for Uz, Initial residual = 0.00575196, Final residual = 0.00029679, No Iterations 4
GAMG:  Solving for p, Initial residual = 0.0913859, Final residual = 0.00435261, No Iterations 2
GAMG:  Solving for p, Initial residual = 0.0125623, Final residual = 0.000622741, No Iterations 2
GAMG:  Solving for p, Initial residual = 0.0017915, Final residual = 0.000104198, No Iterations 2
time step continuity errors : sum local = 7.25152e-06, global = 2.9559e-07, cumulative = -4.87204e-05
smoothSolver:  Solving for epsilon, Initial residual = 0.00419811, Final residual = 0.000304552, No Iterations 3
smoothSolver:  Solving for k, Initial residual = 0.0151339, Final residual = 0.00136556, No Iterations 3
ExecutionTime = 596.08 s  ClockTime = 602 s

Time = 50

smoothSolver:  Solving for Ux, Initial residual = 0.00385687, Final residual = 0.000227087, No Iterations 4
smoothSolver:  Solving for Uy, Initial residual = 0.0138222, Final residual = 0.000843867, No Iterations 4
smoothSolver:  Solving for Uz, Initial residual = 0.00559052, Final residual = 0.000292297, No Iterations 4
GAMG:  Solving for p, Initial residual = 0.0876861, Final residual = 0.00426771, No Iterations 2
GAMG:  Solving for p, Initial residual = 0.0122508, Final residual = 0.000604387, No Iterations 2
GAMG:  Solving for p, Initial residual = 0.00177436, Final residual = 0.000101369, No Iterations 2
time step continuity errors : sum local = 7.10232e-06, global = 3.14833e-07, cumulative = -4.84056e-05
smoothSolver:  Solving for epsilon, Initial residual = 0.00402967, Final residual = 0.000294765, No Iterations 3
smoothSolver:  Solving for k, Initial residual = 0.01441, Final residual = 0.00131325, No Iterations 3
ExecutionTime = 603.88 s  ClockTime = 610 s

Time = 51

smoothSolver:  Solving for Ux, Initial residual = 0.00376595, Final residual = 0.000225039, No Iterations 4
smoothSolver:  Solving for Uy, Initial residual = 0.0134343, Final residual = 0.000826354, No Iterations 4
smoothSolver:  Solving for Uz, Initial residual = 0.0054183, Final residual = 0.000287007, No Iterations 4
GAMG:  Solving for p, Initial residual = 0.0840937, Final residual = 0.00412858, No Iterations 2
GAMG:  Solving for p, Initial residual = 0.0118736, Final residual = 0.000588075, No Iterations 2
GAMG:  Solving for p, Initial residual = 0.00172982, Final residual = 9.96625e-05, No Iterations 2
time step continuity errors : sum local = 7.04017e-06, global = 3.21061e-07, cumulative = -4.80845e-05
smoothSolver:  Solving for epsilon, Initial residual = 0.00386886, Final residual = 0.000285572, No Iterations 3
smoothSolver:  Solving for k, Initial residual = 0.0137186, Final residual = 0.00126333, No Iterations 3
ExecutionTime = 611.75 s  ClockTime = 618 s

Time = 52

smoothSolver:  Solving for Ux, Initial residual = 0.0036916, Final residual = 0.000223751, No Iterations 4
smoothSolver:  Solving for Uy, Initial residual = 0.0130605, Final residual = 0.000808804, No Iterations 4
smoothSolver:  Solving for Uz, Initial residual = 0.00524332, Final residual = 0.000281114, No Iterations 4
GAMG:  Solving for p, Initial residual = 0.0805871, Final residual = 0.00392986, No Iterations 2
GAMG:  Solving for p, Initial residual = 0.0114338, Final residual = 0.000572873, No Iterations 2
GAMG:  Solving for p, Initial residual = 0.00165619, Final residual = 0.000100009, No Iterations 2
time step continuity errors : sum local = 7.1267e-06, global = 3.03012e-07, cumulative = -4.77815e-05
smoothSolver:  Solving for epsilon, Initial residual = 0.0037189, Final residual = 0.000277083, No Iterations 3
smoothSolver:  Solving for k, Initial residual = 0.0130634, Final residual = 0.0012168, No Iterations 3
ExecutionTime = 627.51 s  ClockTime = 634 s

Time = 53

smoothSolver:  Solving for Ux, Initial residual = 0.00363049, Final residual = 0.000223201, No Iterations 4
smoothSolver:  Solving for Uy, Initial residual = 0.0127013, Final residual = 0.000790912, No Iterations 4
smoothSolver:  Solving for Uz, Initial residual = 0.00507257, Final residual = 0.000275142, No Iterations 4
GAMG:  Solving for p, Initial residual = 0.0773626, Final residual = 0.00372856, No Iterations 2
GAMG:  Solving for p, Initial residual = 0.0109788, Final residual = 0.00055597, No Iterations 2
GAMG:  Solving for p, Initial residual = 0.00157638, Final residual = 9.97201e-05, No Iterations 2
time step continuity errors : sum local = 7.16512e-06, global = 2.75693e-07, cumulative = -4.75058e-05
smoothSolver:  Solving for epsilon, Initial residual = 0.00357987, Final residual = 0.000269319, No Iterations 3
smoothSolver:  Solving for k, Initial residual = 0.0124526, Final residual = 0.00117331, No Iterations 3
ExecutionTime = 645.27 s  ClockTime = 652 s

Time = 54

smoothSolver:  Solving for Ux, Initial residual = 0.00358183, Final residual = 0.000223088, No Iterations 4
smoothSolver:  Solving for Uy, Initial residual = 0.0123653, Final residual = 0.000772967, No Iterations 4
smoothSolver:  Solving for Uz, Initial residual = 0.00490873, Final residual = 0.000269377, No Iterations 4
GAMG:  Solving for p, Initial residual = 0.074497, Final residual = 0.00357566, No Iterations 2
GAMG:  Solving for p, Initial residual = 0.010552, Final residual = 0.000538046, No Iterations 2
GAMG:  Solving for p, Initial residual = 0.00151358, Final residual = 9.70977e-05, No Iterations 2
time step continuity errors : sum local = 7.03184e-06, global = 2.63372e-07, cumulative = -4.72424e-05
smoothSolver:  Solving for epsilon, Initial residual = 0.00345335, Final residual = 0.000262298, No Iterations 3
smoothSolver:  Solving for k, Initial residual = 0.0118962, Final residual = 0.00113254, No Iterations 3
ExecutionTime = 658.47 s  ClockTime = 665 s

Time = 55

smoothSolver:  Solving for Ux, Initial residual = 0.00354199, Final residual = 0.000223185, No Iterations 4
smoothSolver:  Solving for Uy, Initial residual = 0.0120402, Final residual = 0.000755666, No Iterations 4
smoothSolver:  Solving for Uz, Initial residual = 0.00475507, Final residual = 0.000263862, No Iterations 4
GAMG:  Solving for p, Initial residual = 0.0720341, Final residual = 0.00348289, No Iterations 2
GAMG:  Solving for p, Initial residual = 0.0101766, Final residual = 0.00052282, No Iterations 2
GAMG:  Solving for p, Initial residual = 0.0014747, Final residual = 9.30477e-05, No Iterations 2
time step continuity errors : sum local = 6.79153e-06, global = 2.69287e-07, cumulative = -4.69731e-05
smoothSolver:  Solving for epsilon, Initial residual = 0.00334037, Final residual = 0.000255889, No Iterations 3
smoothSolver:  Solving for k, Initial residual = 0.0113808, Final residual = 0.00109483, No Iterations 3
ExecutionTime = 665.81 s  ClockTime = 673 s

Time = 56

smoothSolver:  Solving for Ux, Initial residual = 0.00351098, Final residual = 0.000223551, No Iterations 4
smoothSolver:  Solving for Uy, Initial residual = 0.0117385, Final residual = 0.000739694, No Iterations 4
smoothSolver:  Solving for Uz, Initial residual = 0.0046093, Final residual = 0.000258555, No Iterations 4
GAMG:  Solving for p, Initial residual = 0.0698134, Final residual = 0.00341302, No Iterations 2
GAMG:  Solving for p, Initial residual = 0.00982803, Final residual = 0.000508509, No Iterations 2
GAMG:  Solving for p, Initial residual = 0.00144574, Final residual = 8.91846e-05, No Iterations 2
time step continuity errors : sum local = 6.56193e-06, global = 2.74205e-07, cumulative = -4.66989e-05
smoothSolver:  Solving for epsilon, Initial residual = 0.00323784, Final residual = 0.000249888, No Iterations 3
smoothSolver:  Solving for k, Initial residual = 0.0109091, Final residual = 0.00105965, No Iterations 3
ExecutionTime = 673.17 s  ClockTime = 680 s

Time = 57

smoothSolver:  Solving for Ux, Initial residual = 0.00348874, Final residual = 0.000224315, No Iterations 4
smoothSolver:  Solving for Uy, Initial residual = 0.0114575, Final residual = 0.000725243, No Iterations 4
smoothSolver:  Solving for Uz, Initial residual = 0.00447205, Final residual = 0.000253431, No Iterations 4
GAMG:  Solving for p, Initial residual = 0.0676654, Final residual = 0.0033318, No Iterations 2
GAMG:  Solving for p, Initial residual = 0.00948427, Final residual = 0.000493469, No Iterations 2
GAMG:  Solving for p, Initial residual = 0.00140973, Final residual = 8.61586e-05, No Iterations 2
time step continuity errors : sum local = 6.39202e-06, global = 2.71311e-07, cumulative = -4.64276e-05
smoothSolver:  Solving for epsilon, Initial residual = 0.00314014, Final residual = 0.000244167, No Iterations 3
smoothSolver:  Solving for k, Initial residual = 0.0104817, Final residual = 0.00102686, No Iterations 3
ExecutionTime = 680.39 s  ClockTime = 687 s

Time = 58

smoothSolver:  Solving for Ux, Initial residual = 0.00347871, Final residual = 0.000225481, No Iterations 4
smoothSolver:  Solving for Uy, Initial residual = 0.0111992, Final residual = 0.000711996, No Iterations 4
smoothSolver:  Solving for Uz, Initial residual = 0.00434257, Final residual = 0.000248462, No Iterations 4
GAMG:  Solving for p, Initial residual = 0.0656242, Final residual = 0.00323413, No Iterations 2
GAMG:  Solving for p, Initial residual = 0.00914977, Final residual = 0.000476698, No Iterations 2
GAMG:  Solving for p, Initial residual = 0.00136199, Final residual = 8.33469e-05, No Iterations 2
time step continuity errors : sum local = 6.23534e-06, global = 2.62023e-07, cumulative = -4.61656e-05
smoothSolver:  Solving for epsilon, Initial residual = 0.00304688, Final residual = 0.000238714, No Iterations 3
smoothSolver:  Solving for k, Initial residual = 0.0100905, Final residual = 0.000996517, No Iterations 3
ExecutionTime = 690.46 s  ClockTime = 697 s

Time = 59

smoothSolver:  Solving for Ux, Initial residual = 0.00348315, Final residual = 0.000226975, No Iterations 4
smoothSolver:  Solving for Uy, Initial residual = 0.0109645, Final residual = 0.000699824, No Iterations 4
smoothSolver:  Solving for Uz, Initial residual = 0.00422278, Final residual = 0.000243813, No Iterations 4
GAMG:  Solving for p, Initial residual = 0.0637459, Final residual = 0.00316328, No Iterations 2
GAMG:  Solving for p, Initial residual = 0.00886896, Final residual = 0.00046254, No Iterations 2
GAMG:  Solving for p, Initial residual = 0.00131655, Final residual = 8.00931e-05, No Iterations 2
time step continuity errors : sum local = 6.04179e-06, global = 2.50708e-07, cumulative = -4.59149e-05
smoothSolver:  Solving for epsilon, Initial residual = 0.00295804, Final residual = 0.000233471, No Iterations 3
smoothSolver:  Solving for k, Initial residual = 0.00973299, Final residual = 0.000968925, No Iterations 3
ExecutionTime = 703.45 s  ClockTime = 710 s

Time = 60

smoothSolver:  Solving for Ux, Initial residual = 0.0034947, Final residual = 0.000228609, No Iterations 4
smoothSolver:  Solving for Uy, Initial residual = 0.0107612, Final residual = 0.000689146, No Iterations 4
smoothSolver:  Solving for Uz, Initial residual = 0.0041128, Final residual = 0.000239554, No Iterations 4
GAMG:  Solving for p, Initial residual = 0.0621548, Final residual = 0.00312678, No Iterations 2
GAMG:  Solving for p, Initial residual = 0.00864995, Final residual = 0.000457158, No Iterations 2
GAMG:  Solving for p, Initial residual = 0.00129293, Final residual = 7.6958e-05, No Iterations 2
time step continuity errors : sum local = 5.85277e-06, global = 2.42658e-07, cumulative = -4.56722e-05
smoothSolver:  Solving for epsilon, Initial residual = 0.00287711, Final residual = 0.00022843, No Iterations 3
smoothSolver:  Solving for k, Initial residual = 0.00940448, Final residual = 0.000439095, No Iterations 4
ExecutionTime = 716.55 s  ClockTime = 724 s

Time = 61

smoothSolver:  Solving for Ux, Initial residual = 0.0035066, Final residual = 0.000230163, No Iterations 4
smoothSolver:  Solving for Uy, Initial residual = 0.0105868, Final residual = 0.000680244, No Iterations 4
smoothSolver:  Solving for Uz, Initial residual = 0.00401204, Final residual = 0.00023559, No Iterations 4
GAMG:  Solving for p, Initial residual = 0.060896, Final residual = 0.00312766, No Iterations 2
GAMG:  Solving for p, Initial residual = 0.00851436, Final residual = 0.000457509, No Iterations 2
GAMG:  Solving for p, Initial residual = 0.00129262, Final residual = 7.5206e-05, No Iterations 2
time step continuity errors : sum local = 5.76873e-06, global = 2.39172e-07, cumulative = -4.54331e-05
smoothSolver:  Solving for epsilon, Initial residual = 0.00282423, Final residual = 0.000225067, No Iterations 3
smoothSolver:  Solving for k, Initial residual = 0.00909348, Final residual = 0.000430839, No Iterations 4
ExecutionTime = 727.11 s  ClockTime = 734 s

Time = 62

smoothSolver:  Solving for Ux, Initial residual = 0.00352105, Final residual = 0.000231702, No Iterations 4
smoothSolver:  Solving for Uy, Initial residual = 0.010434, Final residual = 0.000673201, No Iterations 4
smoothSolver:  Solving for Uz, Initial residual = 0.00392207, Final residual = 0.000232035, No Iterations 4
GAMG:  Solving for p, Initial residual = 0.0597752, Final residual = 0.00312913, No Iterations 2
GAMG:  Solving for p, Initial residual = 0.00841786, Final residual = 0.000458984, No Iterations 2
GAMG:  Solving for p, Initial residual = 0.00130076, Final residual = 7.41013e-05, No Iterations 2
time step continuity errors : sum local = 5.73597e-06, global = 2.36922e-07, cumulative = -4.51961e-05
smoothSolver:  Solving for epsilon, Initial residual = 0.00276247, Final residual = 0.000221324, No Iterations 3
smoothSolver:  Solving for k, Initial residual = 0.00880121, Final residual = 0.000421698, No Iterations 4
ExecutionTime = 734.48 s  ClockTime = 742 s

Time = 63

smoothSolver:  Solving for Ux, Initial residual = 0.00354105, Final residual = 0.000233253, No Iterations 4
smoothSolver:  Solving for Uy, Initial residual = 0.0103089, Final residual = 0.000667785, No Iterations 4
smoothSolver:  Solving for Uz, Initial residual = 0.00383999, Final residual = 0.000228811, No Iterations 4
GAMG:  Solving for p, Initial residual = 0.0587976, Final residual = 0.00311465, No Iterations 2
GAMG:  Solving for p, Initial residual = 0.00833671, Final residual = 0.000476253, No Iterations 2
GAMG:  Solving for p, Initial residual = 0.00132075, Final residual = 7.29091e-05, No Iterations 2
time step continuity errors : sum local = 5.69858e-06, global = 2.51036e-07, cumulative = -4.49451e-05
smoothSolver:  Solving for epsilon, Initial residual = 0.0026965, Final residual = 0.000217401, No Iterations 3
smoothSolver:  Solving for k, Initial residual = 0.00853239, Final residual = 0.000412309, No Iterations 4
ExecutionTime = 741.83 s  ClockTime = 749 s

Time = 64

smoothSolver:  Solving for Ux, Initial residual = 0.00356657, Final residual = 0.000234897, No Iterations 4
smoothSolver:  Solving for Uy, Initial residual = 0.0102135, Final residual = 0.000664153, No Iterations 4
smoothSolver:  Solving for Uz, Initial residual = 0.00376468, Final residual = 0.000225882, No Iterations 4
GAMG:  Solving for p, Initial residual = 0.0579879, Final residual = 0.00309062, No Iterations 2
GAMG:  Solving for p, Initial residual = 0.00827084, Final residual = 0.000474307, No Iterations 2
GAMG:  Solving for p, Initial residual = 0.00132276, Final residual = 7.21654e-05, No Iterations 2
time step continuity errors : sum local = 5.6964e-06, global = 2.47404e-07, cumulative = -4.46977e-05
smoothSolver:  Solving for epsilon, Initial residual = 0.00262991, Final residual = 0.000213327, No Iterations 3
bounding epsilon, min: -8.04318e-06 max: 2.60465 average: 0.0881238
smoothSolver:  Solving for k, Initial residual = 0.0082822, Final residual = 0.000402969, No Iterations 4
ExecutionTime = 749.89 s  ClockTime = 757 s

Time = 65

smoothSolver:  Solving for Ux, Initial residual = 0.00359809, Final residual = 0.000236589, No Iterations 4
smoothSolver:  Solving for Uy, Initial residual = 0.0101458, Final residual = 0.000662171, No Iterations 4
smoothSolver:  Solving for Uz, Initial residual = 0.00369763, Final residual = 0.000223245, No Iterations 4
GAMG:  Solving for p, Initial residual = 0.0573363, Final residual = 0.00307385, No Iterations 2
GAMG:  Solving for p, Initial residual = 0.0082298, Final residual = 0.000472287, No Iterations 2
GAMG:  Solving for p, Initial residual = 0.00132269, Final residual = 7.15917e-05, No Iterations 2
time step continuity errors : sum local = 5.70935e-06, global = 2.44376e-07, cumulative = -4.44533e-05
smoothSolver:  Solving for epsilon, Initial residual = 0.0025665, Final residual = 0.000209185, No Iterations 3
smoothSolver:  Solving for k, Initial residual = 0.00804792, Final residual = 0.000393809, No Iterations 4
ExecutionTime = 762.08 s  ClockTime = 769 s

Time = 66

smoothSolver:  Solving for Ux, Initial residual = 0.00363077, Final residual = 0.000238205, No Iterations 4
smoothSolver:  Solving for Uy, Initial residual = 0.0101075, Final residual = 0.000661853, No Iterations 4
smoothSolver:  Solving for Uz, Initial residual = 0.00363474, Final residual = 0.000220889, No Iterations 4
GAMG:  Solving for p, Initial residual = 0.0570685, Final residual = 0.00307277, No Iterations 2
GAMG:  Solving for p, Initial residual = 0.00821831, Final residual = 0.000471619, No Iterations 2
GAMG:  Solving for p, Initial residual = 0.00132582, Final residual = 7.12936e-05, No Iterations 2
time step continuity errors : sum local = 5.74546e-06, global = 2.43804e-07, cumulative = -4.42095e-05
smoothSolver:  Solving for epsilon, Initial residual = 0.00250565, Final residual = 0.000205067, No Iterations 3
smoothSolver:  Solving for k, Initial residual = 0.00782806, Final residual = 0.00038489, No Iterations 4
bounding k, min: -1.15484e-05 max: 0.366488 average: 0.128787
ExecutionTime = 775.19 s  ClockTime = 782 s

Time = 67

smoothSolver:  Solving for Ux, Initial residual = 0.00366244, Final residual = 0.000239686, No Iterations 4
smoothSolver:  Solving for Uy, Initial residual = 0.0101035, Final residual = 0.00066266, No Iterations 4
smoothSolver:  Solving for Uz, Initial residual = 0.00358117, Final residual = 0.000218763, No Iterations 4
GAMG:  Solving for p, Initial residual = 0.0572172, Final residual = 0.00308318, No Iterations 2
GAMG:  Solving for p, Initial residual = 0.00823562, Final residual = 0.000472148, No Iterations 2
GAMG:  Solving for p, Initial residual = 0.00133172, Final residual = 7.11351e-05, No Iterations 2
time step continuity errors : sum local = 5.7953e-06, global = 2.45441e-07, cumulative = -4.39641e-05
smoothSolver:  Solving for epsilon, Initial residual = 0.00244852, Final residual = 0.000201034, No Iterations 3
bounding epsilon, min: -1.32315e-06 max: 2.8377 average: 0.0893271
smoothSolver:  Solving for k, Initial residual = 0.00762532, Final residual = 0.000376291, No Iterations 4
ExecutionTime = 787.49 s  ClockTime = 795 s

Time = 68

smoothSolver:  Solving for Ux, Initial residual = 0.00369066, Final residual = 0.000240993, No Iterations 4
smoothSolver:  Solving for Uy, Initial residual = 0.0101026, Final residual = 0.000664356, No Iterations 4
smoothSolver:  Solving for Uz, Initial residual = 0.00353252, Final residual = 0.000216928, No Iterations 4
GAMG:  Solving for p, Initial residual = 0.0572346, Final residual = 0.00309438, No Iterations 2
GAMG:  Solving for p, Initial residual = 0.0082471, Final residual = 0.00047323, No Iterations 2
GAMG:  Solving for p, Initial residual = 0.00133884, Final residual = 7.10706e-05, No Iterations 2
time step continuity errors : sum local = 5.85186e-06, global = 2.47924e-07, cumulative = -4.37162e-05
smoothSolver:  Solving for epsilon, Initial residual = 0.00239368, Final residual = 0.000197063, No Iterations 3
smoothSolver:  Solving for k, Initial residual = 0.00743698, Final residual = 0.000368017, No Iterations 4
ExecutionTime = 794.69 s  ClockTime = 802 s

Time = 69

smoothSolver:  Solving for Ux, Initial residual = 0.00371668, Final residual = 0.00024215, No Iterations 4
smoothSolver:  Solving for Uy, Initial residual = 0.0101139, Final residual = 0.000666514, No Iterations 4
smoothSolver:  Solving for Uz, Initial residual = 0.00348932, Final residual = 0.000215298, No Iterations 4
GAMG:  Solving for p, Initial residual = 0.0572758, Final residual = 0.00310398, No Iterations 2
GAMG:  Solving for p, Initial residual = 0.00824124, Final residual = 0.000473631, No Iterations 2
GAMG:  Solving for p, Initial residual = 0.00134343, Final residual = 7.09548e-05, No Iterations 2
time step continuity errors : sum local = 5.90646e-06, global = 2.49885e-07, cumulative = -4.34663e-05
smoothSolver:  Solving for epsilon, Initial residual = 0.00234189, Final residual = 0.000193201, No Iterations 3
bounding epsilon, min: -0.00037792 max: 2.98869 average: 0.0902501
smoothSolver:  Solving for k, Initial residual = 0.00726013, Final residual = 0.000360064, No Iterations 4
ExecutionTime = 802.41 s  ClockTime = 810 s

Time = 70

smoothSolver:  Solving for Ux, Initial residual = 0.00373979, Final residual = 0.000243128, No Iterations 4
smoothSolver:  Solving for Uy, Initial residual = 0.0101292, Final residual = 0.000669026, No Iterations 4
smoothSolver:  Solving for Uz, Initial residual = 0.00345119, Final residual = 0.000213986, No Iterations 4
GAMG:  Solving for p, Initial residual = 0.0572644, Final residual = 0.00310732, No Iterations 2
GAMG:  Solving for p, Initial residual = 0.00820726, Final residual = 0.000472577, No Iterations 2
GAMG:  Solving for p, Initial residual = 0.00134301, Final residual = 7.06902e-05, No Iterations 2
time step continuity errors : sum local = 5.95002e-06, global = 2.5087e-07, cumulative = -4.32154e-05
smoothSolver:  Solving for epsilon, Initial residual = 0.00229336, Final residual = 0.000189463, No Iterations 3
smoothSolver:  Solving for k, Initial residual = 0.00709982, Final residual = 0.000352388, No Iterations 4
ExecutionTime = 810.77 s  ClockTime = 818 s

Time = 71

smoothSolver:  Solving for Ux, Initial residual = 0.00376154, Final residual = 0.000243932, No Iterations 4
smoothSolver:  Solving for Uy, Initial residual = 0.0101469, Final residual = 0.000671815, No Iterations 4
smoothSolver:  Solving for Uz, Initial residual = 0.00341596, Final residual = 0.000212878, No Iterations 4
GAMG:  Solving for p, Initial residual = 0.057191, Final residual = 0.00310707, No Iterations 2
GAMG:  Solving for p, Initial residual = 0.00815519, Final residual = 0.000470374, No Iterations 2
GAMG:  Solving for p, Initial residual = 0.00133874, Final residual = 7.02755e-05, No Iterations 2
time step continuity errors : sum local = 5.98099e-06, global = 2.51531e-07, cumulative = -4.29639e-05
smoothSolver:  Solving for epsilon, Initial residual = 0.00224823, Final residual = 0.000185878, No Iterations 3
smoothSolver:  Solving for k, Initial residual = 0.00695122, Final residual = 0.000344933, No Iterations 4
ExecutionTime = 822.42 s  ClockTime = 830 s

Time = 72

smoothSolver:  Solving for Ux, Initial residual = 0.00377939, Final residual = 0.000244518, No Iterations 4
smoothSolver:  Solving for Uy, Initial residual = 0.010166, Final residual = 0.000674368, No Iterations 4
smoothSolver:  Solving for Uz, Initial residual = 0.00338386, Final residual = 0.000211891, No Iterations 4
GAMG:  Solving for p, Initial residual = 0.0570667, Final residual = 0.00310799, No Iterations 2
GAMG:  Solving for p, Initial residual = 0.00810056, Final residual = 0.000467942, No Iterations 2
GAMG:  Solving for p, Initial residual = 0.00133312, Final residual = 6.98905e-05, No Iterations 2
time step continuity errors : sum local = 6.0135e-06, global = 2.52278e-07, cumulative = -4.27116e-05
smoothSolver:  Solving for epsilon, Initial residual = 0.00220648, Final residual = 0.000182453, No Iterations 3
bounding epsilon, min: -0.0003783 max: 3.21302 average: 0.091767
smoothSolver:  Solving for k, Initial residual = 0.00680986, Final residual = 0.000337699, No Iterations 4
ExecutionTime = 837.39 s  ClockTime = 845 s

Time = 73

smoothSolver:  Solving for Ux, Initial residual = 0.00379504, Final residual = 0.000244871, No Iterations 4
smoothSolver:  Solving for Uy, Initial residual = 0.0101787, Final residual = 0.00067659, No Iterations 4
smoothSolver:  Solving for Uz, Initial residual = 0.00335411, Final residual = 0.000211026, No Iterations 4
GAMG:  Solving for p, Initial residual = 0.0570031, Final residual = 0.00310381, No Iterations 2
GAMG:  Solving for p, Initial residual = 0.00803141, Final residual = 0.00046535, No Iterations 2
GAMG:  Solving for p, Initial residual = 0.00132741, Final residual = 6.9496e-05, No Iterations 2
time step continuity errors : sum local = 6.04405e-06, global = 2.52933e-07, cumulative = -4.24587e-05
smoothSolver:  Solving for epsilon, Initial residual = 0.0021662, Final residual = 0.000179132, No Iterations 3
smoothSolver:  Solving for k, Initial residual = 0.00667556, Final residual = 0.000330741, No Iterations 4
bounding k, min: -2.2939e-06 max: 0.372789 average: 0.130732
ExecutionTime = 848.93 s  ClockTime = 857 s

Time = 74

smoothSolver:  Solving for Ux, Initial residual = 0.00380853, Final residual = 0.000244987, No Iterations 4
smoothSolver:  Solving for Uy, Initial residual = 0.0101855, Final residual = 0.000678271, No Iterations 4
smoothSolver:  Solving for Uz, Initial residual = 0.00332712, Final residual = 0.000210237, No Iterations 4
GAMG:  Solving for p, Initial residual = 0.0570231, Final residual = 0.00309142, No Iterations 2
GAMG:  Solving for p, Initial residual = 0.007957, Final residual = 0.000452318, No Iterations 2
GAMG:  Solving for p, Initial residual = 0.00131141, Final residual = 6.9466e-05, No Iterations 2
time step continuity errors : sum local = 6.10599e-06, global = 2.29919e-07, cumulative = -4.22287e-05
smoothSolver:  Solving for epsilon, Initial residual = 0.00212815, Final residual = 0.000175854, No Iterations 3
bounding epsilon, min: -0.000387841 max: 3.35673 average: 0.0928474
smoothSolver:  Solving for k, Initial residual = 0.00655076, Final residual = 0.000324096, No Iterations 4
bounding k, min: -1.8805e-05 max: 0.37347 average: 0.131001
ExecutionTime = 856.23 s  ClockTime = 864 s

Time = 75

smoothSolver:  Solving for Ux, Initial residual = 0.00398445, Final residual = 0.000247193, No Iterations 4
smoothSolver:  Solving for Uy, Initial residual = 0.0118816, Final residual = 0.000703394, No Iterations 4
smoothSolver:  Solving for Uz, Initial residual = 0.00379163, Final residual = 0.000211145, No Iterations 4
GAMG:  Solving for p, Initial residual = 0.0573629, Final residual = 0.00307448, No Iterations 2
GAMG:  Solving for p, Initial residual = 0.00798371, Final residual = 0.00047571, No Iterations 2
GAMG:  Solving for p, Initial residual = 0.00131884, Final residual = 7.17542e-05, No Iterations 2
time step continuity errors : sum local = 6.38109e-06, global = 2.36801e-07, cumulative = -4.19919e-05
smoothSolver:  Solving for epsilon, Initial residual = 0.00209454, Final residual = 0.000171801, No Iterations 3
bounding epsilon, min: -0.00067756 max: 3.42664 average: 0.093403
smoothSolver:  Solving for k, Initial residual = 0.00650412, Final residual = 0.000317627, No Iterations 4
ExecutionTime = 863.62 s  ClockTime = 871 s

Time = 76

smoothSolver:  Solving for Ux, Initial residual = 0.00383545, Final residual = 0.000244908, No Iterations 4
smoothSolver:  Solving for Uy, Initial residual = 0.0102089, Final residual = 0.000682945, No Iterations 4
smoothSolver:  Solving for Uz, Initial residual = 0.00328912, Final residual = 0.000209219, No Iterations 4
GAMG:  Solving for p, Initial residual = 0.0681677, Final residual = 0.00381117, No Iterations 2
GAMG:  Solving for p, Initial residual = 0.00829548, Final residual = 0.000547983, No Iterations 2
GAMG:  Solving for p, Initial residual = 0.00158269, Final residual = 8.27028e-05, No Iterations 2
time step continuity errors : sum local = 7.44201e-06, global = 2.82797e-07, cumulative = -4.17091e-05
smoothSolver:  Solving for epsilon, Initial residual = 0.00206228, Final residual = 0.000169572, No Iterations 3
bounding epsilon, min: -6.20715e-05 max: 3.49531 average: 0.0939675
smoothSolver:  Solving for k, Initial residual = 0.00633983, Final residual = 0.000311879, No Iterations 4
ExecutionTime = 875.22 s  ClockTime = 883 s

Time = 77

smoothSolver:  Solving for Ux, Initial residual = 0.00384161, Final residual = 0.000244421, No Iterations 4
smoothSolver:  Solving for Uy, Initial residual = 0.0101666, Final residual = 0.000679617, No Iterations 4
smoothSolver:  Solving for Uz, Initial residual = 0.00326709, Final residual = 0.000207975, No Iterations 4
GAMG:  Solving for p, Initial residual = 0.0622014, Final residual = 0.00362736, No Iterations 2
GAMG:  Solving for p, Initial residual = 0.00807994, Final residual = 0.000521203, No Iterations 2
GAMG:  Solving for p, Initial residual = 0.00150494, Final residual = 7.86388e-05, No Iterations 2
time step continuity errors : sum local = 7.15906e-06, global = 2.75129e-07, cumulative = -4.1434e-05
smoothSolver:  Solving for epsilon, Initial residual = 0.00203112, Final residual = 0.000166406, No Iterations 3
smoothSolver:  Solving for k, Initial residual = 0.00624455, Final residual = 0.000306204, No Iterations 4
ExecutionTime = 890.33 s  ClockTime = 898 s

Time = 78

smoothSolver:  Solving for Ux, Initial residual = 0.00384778, Final residual = 0.000244125, No Iterations 4
smoothSolver:  Solving for Uy, Initial residual = 0.0101514, Final residual = 0.000678041, No Iterations 4
smoothSolver:  Solving for Uz, Initial residual = 0.00325119, Final residual = 0.000207331, No Iterations 4
GAMG:  Solving for p, Initial residual = 0.0598798, Final residual = 0.0032116, No Iterations 2
GAMG:  Solving for p, Initial residual = 0.00776321, Final residual = 0.000468921, No Iterations 2
GAMG:  Solving for p, Initial residual = 0.00135585, Final residual = 7.07614e-05, No Iterations 2
[...]


    From function virtual bool Foam::regIOobject::readIfModified()
    in file db/regIOobject/regIOobjectRead.C at line 408
        Re-reading object controlDict from file "/home/ofuser/workingDir/butterfly/indoor_temperature/system/controlDict"
Time = 186

smoothSolver:  Solving for Ux, Initial residual = 0.00131701, Final residual = 7.52887e-05, No Iterations 4
smoothSolver:  Solving for Uy, Initial residual = 0.00648103, Final residual = 0.000367853, No Iterations 4
smoothSolver:  Solving for Uz, Initial residual = 0.00167316, Final residual = 9.64504e-05, No Iterations 4
GAMG:  Solving for p, Initial residual = 0.0330589, Final residual = 0.00104449, No Iterations 2
GAMG:  Solving for p, Initial residual = 0.00340324, Final residual = 0.000141371, No Iterations 2
GAMG:  Solving for p, Initial residual = 0.000422221, Final residual = 2.10525e-05, No Iterations 2
time step continuity errors : sum local = 2.36099e-06, global = 1.40638e-07, cumulative = -3.98489e-05
smoothSolver:  Solving for epsilon, Initial residual = 0.000941153, Final residual = 6.0854e-05, No Iterations 3
bounding epsilon, min: -0.00629654 max: 4.73639 average: 0.0925709
smoothSolver:  Solving for k, Initial residual = 0.00364234, Final residual = 0.000345305, No Iterations 3
ExecutionTime = 2062.85 s  ClockTime = 2077 s

Time = 187

smoothSolver:  Solving for Ux, Initial residual = 0.00131406, Final residual = 7.47863e-05, No Iterations 4
smoothSolver:  Solving for Uy, Initial residual = 0.00640509, Final residual = 0.000362847, No Iterations 4
smoothSolver:  Solving for Uz, Initial residual = 0.00164606, Final residual = 9.38867e-05, No Iterations 4
GAMG:  Solving for p, Initial residual = 0.0322611, Final residual = 0.0010151, No Iterations 2
GAMG:  Solving for p, Initial residual = 0.00332892, Final residual = 0.000135883, No Iterations 2
GAMG:  Solving for p, Initial residual = 0.00041362, Final residual = 2.03562e-05, No Iterations 2
time step continuity errors : sum local = 2.27994e-06, global = 1.35903e-07, cumulative = -3.9713e-05
smoothSolver:  Solving for epsilon, Initial residual = 0.000932105, Final residual = 5.9585e-05, No Iterations 3
bounding epsilon, min: -0.00618793 max: 4.72529 average: 0.0925678
smoothSolver:  Solving for k, Initial residual = 0.00359965, Final residual = 0.000339217, No Iterations 3
ExecutionTime = 2070.59 s  ClockTime = 2084 s

Time = 188

smoothSolver:  Solving for Ux, Initial residual = 0.00131266, Final residual = 7.4527e-05, No Iterations 4
smoothSolver:  Solving for Uy, Initial residual = 0.00633534, Final residual = 0.000358326, No Iterations 4
smoothSolver:  Solving for Uz, Initial residual = 0.00161897, Final residual = 9.13977e-05, No Iterations 4
GAMG:  Solving for p, Initial residual = 0.0316611, Final residual = 0.000988328, No Iterations 2
GAMG:  Solving for p, Initial residual = 0.00327019, Final residual = 0.00013088, No Iterations 2
GAMG:  Solving for p, Initial residual = 0.000406436, Final residual = 1.97328e-05, No Iterations 2
time step continuity errors : sum local = 2.20769e-06, global = 1.31624e-07, cumulative = -3.95813e-05
smoothSolver:  Solving for epsilon, Initial residual = 0.000923384, Final residual = 5.84351e-05, No Iterations 3
bounding epsilon, min: -0.0060722 max: 4.7113 average: 0.0925771
smoothSolver:  Solving for k, Initial residual = 0.00355946, Final residual = 0.0003336, No Iterations 3
ExecutionTime = 2078.03 s  ClockTime = 2092 s

Time = 189

smoothSolver:  Solving for Ux, Initial residual = 0.00131299, Final residual = 7.44843e-05, No Iterations 4
smoothSolver:  Solving for Uy, Initial residual = 0.00627026, Final residual = 0.000354305, No Iterations 4
smoothSolver:  Solving for Uz, Initial residual = 0.00159323, Final residual = 8.90417e-05, No Iterations 4
GAMG:  Solving for p, Initial residual = 0.0311566, Final residual = 0.00096422, No Iterations 2
GAMG:  Solving for p, Initial residual = 0.00322324, Final residual = 0.000126045, No Iterations 2
GAMG:  Solving for p, Initial residual = 0.000399852, Final residual = 1.91283e-05, No Iterations 2
time step continuity errors : sum local = 2.1383e-06, global = 1.27841e-07, cumulative = -3.94535e-05
smoothSolver:  Solving for epsilon, Initial residual = 0.000914542, Final residual = 5.7434e-05, No Iterations 3
bounding epsilon, min: -0.00594991 max: 4.69461 average: 0.0925976
smoothSolver:  Solving for k, Initial residual = 0.00352312, Final residual = 0.000328501, No Iterations 3
ExecutionTime = 2088.21 s  ClockTime = 2102 s

Time = 190

smoothSolver:  Solving for Ux, Initial residual = 0.00131387, Final residual = 7.46523e-05, No Iterations 4
smoothSolver:  Solving for Uy, Initial residual = 0.00620612, Final residual = 0.00035083, No Iterations 4
smoothSolver:  Solving for Uz, Initial residual = 0.00156974, Final residual = 8.69364e-05, No Iterations 4
GAMG:  Solving for p, Initial residual = 0.0307222, Final residual = 0.000946036, No Iterations 2
GAMG:  Solving for p, Initial residual = 0.00318733, Final residual = 0.000121478, No Iterations 2
GAMG:  Solving for p, Initial residual = 0.000393795, Final residual = 1.85024e-05, No Iterations 2
time step continuity errors : sum local = 2.06707e-06, global = 1.24676e-07, cumulative = -3.93288e-05
smoothSolver:  Solving for epsilon, Initial residual = 0.000905806, Final residual = 5.65706e-05, No Iterations 3
bounding epsilon, min: -0.00582234 max: 4.67545 average: 0.0926281
smoothSolver:  Solving for k, Initial residual = 0.00348913, Final residual = 0.000323934, No Iterations 3
ExecutionTime = 2102.07 s  ClockTime = 2116 s

Time = 191

smoothSolver:  Solving for Ux, Initial residual = 0.00131491, Final residual = 7.49435e-05, No Iterations 4
smoothSolver:  Solving for Uy, Initial residual = 0.00614549, Final residual = 0.000347858, No Iterations 4
smoothSolver:  Solving for Uz, Initial residual = 0.00154758, Final residual = 8.51183e-05, No Iterations 4
GAMG:  Solving for p, Initial residual = 0.0303747, Final residual = 0.00093292, No Iterations 2
GAMG:  Solving for p, Initial residual = 0.0031647, Final residual = 0.000117439, No Iterations 2
GAMG:  Solving for p, Initial residual = 0.000388356, Final residual = 1.78619e-05, No Iterations 2
time step continuity errors : sum local = 1.9947e-06, global = 1.22138e-07, cumulative = -3.92067e-05
smoothSolver:  Solving for epsilon, Initial residual = 0.000897763, Final residual = 5.58313e-05, No Iterations 3
bounding epsilon, min: -0.0056915 max: 4.65405 average: 0.0926678
smoothSolver:  Solving for k, Initial residual = 0.00346017, Final residual = 0.00031996, No Iterations 3
ExecutionTime = 2115.06 s  ClockTime = 2129 s


    From function virtual bool Foam::regIOobject::readIfModified()
    in file db/regIOobject/regIOobjectRead.C at line 408
        Re-reading object fvSolution from file "/home/ofuser/workingDir/butterfly/indoor_temperature/system/fvSolution"
Time = 192

smoothSolver:  Solving for Ux, Initial residual = 0.00131551, Final residual = 7.53206e-05, No Iterations 4
smoothSolver:  Solving for Uy, Initial residual = 0.00608266, Final residual = 0.000345329, No Iterations 4
smoothSolver:  Solving for Uz, Initial residual = 0.00152648, Final residual = 8.35534e-05, No Iterations 4
GAMG:  Solving for p, Initial residual = 0.0300445, Final residual = 0.000925119, No Iterations 2
GAMG:  Solving for p, Initial residual = 0.00315182, Final residual = 0.000114135, No Iterations 2
GAMG:  Solving for p, Initial residual = 0.000383776, Final residual = 1.72636e-05, No Iterations 2
time step continuity errors : sum local = 1.92745e-06, global = 1.20177e-07, cumulative = -3.90865e-05
smoothSolver:  Solving for epsilon, Initial residual = 0.000890942, Final residual = 5.51883e-05, No Iterations 3
bounding epsilon, min: -0.00555987 max: 4.63066 average: 0.0927158
smoothSolver:  Solving for k, Initial residual = 0.00343682, Final residual = 0.000316425, No Iterations 3
ExecutionTime = 2122.89 s  ClockTime = 2137 s


    From function virtual bool Foam::regIOobject::readIfModified()
    in file db/regIOobject/regIOobjectRead.C at line 408
        Re-reading object fvSolution from file "/home/ofuser/workingDir/butterfly/indoor_temperature/system/fvSolution"
Time = 193

smoothSolver:  Solving for Ux, Initial residual = 0.00131568, Final residual = 7.57328e-05, No Iterations 4
smoothSolver:  Solving for Uy, Initial residual = 0.00601513, Final residual = 0.000343196, No Iterations 4
smoothSolver:  Solving for Uz, Initial residual = 0.00150728, Final residual = 8.22979e-05, No Iterations 4
GAMG:  Solving for p, Initial residual = 0.0297807, Final residual = 0.000922028, No Iterations 2
GAMG:  Solving for p, Initial residual = 0.00314792, Final residual = 0.000111763, No Iterations 2
GAMG:  Solving for p, Initial residual = 0.000379908, Final residual = 1.67248e-05, No Iterations 2
time step continuity errors : sum local = 1.86712e-06, global = 1.18772e-07, cumulative = -3.89677e-05
smoothSolver:  Solving for epsilon, Initial residual = 0.000884649, Final residual = 5.46216e-05, No Iterations 3
bounding epsilon, min: -0.00543038 max: 4.60552 average: 0.0927714
smoothSolver:  Solving for k, Initial residual = 0.00341584, Final residual = 0.000313288, No Iterations 3
ExecutionTime = 2130.45 s  ClockTime = 2145 s

Time = 194

smoothSolver:  Solving for Ux, Initial residual = 0.00131487, Final residual = 7.61608e-05, No Iterations 4
smoothSolver:  Solving for Uy, Initial residual = 0.00594424, Final residual = 0.000341171, No Iterations 4
smoothSolver:  Solving for Uz, Initial residual = 0.00148919, Final residual = 8.12794e-05, No Iterations 4
GAMG:  Solving for p, Initial residual = 0.0295478, Final residual = 0.000920369, No Iterations 2
GAMG:  Solving for p, Initial residual = 0.00314754, Final residual = 0.000110211, No Iterations 2
GAMG:  Solving for p, Initial residual = 0.000377331, Final residual = 1.62277e-05, No Iterations 2
time step continuity errors : sum local = 1.81185e-06, global = 1.1801e-07, cumulative = -3.88497e-05
smoothSolver:  Solving for epsilon, Initial residual = 0.000878455, Final residual = 5.41382e-05, No Iterations 3
bounding epsilon, min: -0.00530573 max: 4.57888 average: 0.0928341
smoothSolver:  Solving for k, Initial residual = 0.00339573, Final residual = 0.000310472, No Iterations 3
ExecutionTime = 2138.01 s  ClockTime = 2152 s

Time = 195

smoothSolver:  Solving for Ux, Initial residual = 0.0013136, Final residual = 7.65296e-05, No Iterations 4
smoothSolver:  Solving for Uy, Initial residual = 0.00588067, Final residual = 0.000339425, No Iterations 4
smoothSolver:  Solving for Uz, Initial residual = 0.00147338, Final residual = 8.04813e-05, No Iterations 4
GAMG:  Solving for p, Initial residual = 0.0293433, Final residual = 0.000918735, No Iterations 2
GAMG:  Solving for p, Initial residual = 0.00314994, Final residual = 0.000109224, No Iterations 2
GAMG:  Solving for p, Initial residual = 0.000375403, Final residual = 1.57823e-05, No Iterations 2
time step continuity errors : sum local = 1.76258e-06, global = 1.17903e-07, cumulative = -3.87318e-05
smoothSolver:  Solving for epsilon, Initial residual = 0.000873747, Final residual = 5.37333e-05, No Iterations 3
bounding epsilon, min: -0.00518835 max: 4.57731 average: 0.0929033
smoothSolver:  Solving for k, Initial residual = 0.00337729, Final residual = 0.000307929, No Iterations 3
ExecutionTime = 2147.79 s  ClockTime = 2162 s


    From function virtual bool Foam::regIOobject::readIfModified()
    in file db/regIOobject/regIOobjectRead.C at line 408
        Re-reading object fvSolution from file "/home/ofuser/workingDir/butterfly/indoor_temperature/system/fvSolution"
Time = 196

smoothSolver:  Solving for Ux, Initial residual = 0.00131052, Final residual = 7.68135e-05, No Iterations 4
smoothSolver:  Solving for Uy, Initial residual = 0.00582378, Final residual = 0.000338047, No Iterations 4
smoothSolver:  Solving for Uz, Initial residual = 0.00145996, Final residual = 7.98911e-05, No Iterations 4
GAMG:  Solving for p, Initial residual = 0.0291521, Final residual = 0.000915877, No Iterations 2
GAMG:  Solving for p, Initial residual = 0.00315201, Final residual = 0.000108752, No Iterations 2
GAMG:  Solving for p, Initial residual = 0.00037418, Final residual = 1.54629e-05, No Iterations 2
time step continuity errors : sum local = 1.72749e-06, global = 1.18404e-07, cumulative = -3.86134e-05
smoothSolver:  Solving for epsilon, Initial residual = 0.000869758, Final residual = 5.33672e-05, No Iterations 3
bounding epsilon, min: -0.00508057 max: 4.5916 average: 0.0929786
smoothSolver:  Solving for k, Initial residual = 0.00336081, Final residual = 0.000305533, No Iterations 3
ExecutionTime = 2160.84 s  ClockTime = 2175 s


    From function virtual bool Foam::regIOobject::readIfModified()
    in file db/regIOobject/regIOobjectRead.C at line 408
        Re-reading object fvSolution from file "/home/ofuser/workingDir/butterfly/indoor_temperature/system/fvSolution"
Time = 197

smoothSolver:  Solving for Ux, Initial residual = 0.00130499, Final residual = 7.69702e-05, No Iterations 4
smoothSolver:  Solving for Uy, Initial residual = 0.00577297, Final residual = 0.000336947, No Iterations 4
smoothSolver:  Solving for Uz, Initial residual = 0.00144854, Final residual = 7.95047e-05, No Iterations 4
GAMG:  Solving for p, Initial residual = 0.0290124, Final residual = 0.000912258, No Iterations 2
GAMG:  Solving for p, Initial residual = 0.003154, Final residual = 0.000108944, No Iterations 2
GAMG:  Solving for p, Initial residual = 0.000373729, Final residual = 1.52715e-05, No Iterations 2
time step continuity errors : sum local = 1.70667e-06, global = 1.19406e-07, cumulative = -3.8494e-05
smoothSolver:  Solving for epsilon, Initial residual = 0.0008655, Final residual = 5.30129e-05, No Iterations 3
bounding epsilon, min: -0.00498377 max: 4.60328 average: 0.0930597
smoothSolver:  Solving for k, Initial residual = 0.00334586, Final residual = 0.000303299, No Iterations 3
ExecutionTime = 2174.28 s  ClockTime = 2189 s

Time = 198

smoothSolver:  Solving for Ux, Initial residual = 0.00129778, Final residual = 7.70157e-05, No Iterations 4
smoothSolver:  Solving for Uy, Initial residual = 0.00572656, Final residual = 0.000336087, No Iterations 4
smoothSolver:  Solving for Uz, Initial residual = 0.0014392, Final residual = 7.93494e-05, No Iterations 4
GAMG:  Solving for p, Initial residual = 0.0289026, Final residual = 0.00090894, No Iterations 2
GAMG:  Solving for p, Initial residual = 0.00315556, Final residual = 0.00011002, No Iterations 2
GAMG:  Solving for p, Initial residual = 0.00037419, Final residual = 1.52185e-05, No Iterations 2
time step continuity errors : sum local = 1.70157e-06, global = 1.20831e-07, cumulative = -3.83732e-05
smoothSolver:  Solving for epsilon, Initial residual = 0.000861239, Final residual = 5.26768e-05, No Iterations 3
bounding epsilon, min: -0.00489907 max: 4.61434 average: 0.0931462
smoothSolver:  Solving for k, Initial residual = 0.00332922, Final residual = 0.000301059, No Iterations 3
ExecutionTime = 2185.19 s  ClockTime = 2200 s

Time = 199

smoothSolver:  Solving for Ux, Initial residual = 0.00128905, Final residual = 7.69662e-05, No Iterations 4
smoothSolver:  Solving for Uy, Initial residual = 0.00568567, Final residual = 0.000335554, No Iterations 4
smoothSolver:  Solving for Uz, Initial residual = 0.00143286, Final residual = 7.94215e-05, No Iterations 4
GAMG:  Solving for p, Initial residual = 0.0288522, Final residual = 0.000905618, No Iterations 2
GAMG:  Solving for p, Initial residual = 0.00315478, Final residual = 0.000111914, No Iterations 2
GAMG:  Solving for p, Initial residual = 0.000375425, Final residual = 1.53522e-05, No Iterations 2
time step continuity errors : sum local = 1.71762e-06, global = 1.22542e-07, cumulative = -3.82506e-05
smoothSolver:  Solving for epsilon, Initial residual = 0.000856739, Final residual = 5.23574e-05, No Iterations 3
bounding epsilon, min: -0.0048272 max: 4.62416 average: 0.0932381
smoothSolver:  Solving for k, Initial residual = 0.00331142, Final residual = 0.000298848, No Iterations 3
ExecutionTime = 2192.95 s  ClockTime = 2207 s

Time = 200

smoothSolver:  Solving for Ux, Initial residual = 0.00127874, Final residual = 7.67948e-05, No Iterations 4
smoothSolver:  Solving for Uy, Initial residual = 0.00564889, Final residual = 0.000335318, No Iterations 4
smoothSolver:  Solving for Uz, Initial residual = 0.00142893, Final residual = 7.97388e-05, No Iterations 4
GAMG:  Solving for p, Initial residual = 0.0288179, Final residual = 0.000903882, No Iterations 2
GAMG:  Solving for p, Initial residual = 0.00315182, Final residual = 0.000114641, No Iterations 2
GAMG:  Solving for p, Initial residual = 0.000377597, Final residual = 1.57583e-05, No Iterations 2
time step continuity errors : sum local = 1.76416e-06, global = 1.24419e-07, cumulative = -3.81262e-05
smoothSolver:  Solving for epsilon, Initial residual = 0.000851363, Final residual = 5.20194e-05, No Iterations 3
bounding epsilon, min: -0.00476892 max: 4.63127 average: 0.093335
smoothSolver:  Solving for k, Initial residual = 0.00329142, Final residual = 0.000296802, No Iterations 3
ExecutionTime = 2208.62 s  ClockTime = 2223 s

Time = 201

smoothSolver:  Solving for Ux, Initial residual = 0.00126756, Final residual = 7.65052e-05, No Iterations 4
smoothSolver:  Solving for Uy, Initial residual = 0.00561993, Final residual = 0.000335512, No Iterations 4
smoothSolver:  Solving for Uz, Initial residual = 0.00142785, Final residual = 8.03e-05, No Iterations 4
GAMG:  Solving for p, Initial residual = 0.0288127, Final residual = 0.000904143, No Iterations 2
GAMG:  Solving for p, Initial residual = 0.00314924, Final residual = 0.000118069, No Iterations 2
GAMG:  Solving for p, Initial residual = 0.000380787, Final residual = 1.64466e-05, No Iterations 2
time step continuity errors : sum local = 1.84237e-06, global = 1.26247e-07, cumulative = -3.8e-05
smoothSolver:  Solving for epsilon, Initial residual = 0.000845421, Final residual = 5.16788e-05, No Iterations 3
bounding epsilon, min: -0.00472233 max: 4.63573 average: 0.093437
smoothSolver:  Solving for k, Initial residual = 0.00326797, Final residual = 0.000294845, No Iterations 3
ExecutionTime = 2221.9 s  ClockTime = 2237 s

Time = 202

smoothSolver:  Solving for Ux, Initial residual = 0.00125512, Final residual = 7.60892e-05, No Iterations 4
smoothSolver:  Solving for Uy, Initial residual = 0.00559682, Final residual = 0.000336209, No Iterations 4
smoothSolver:  Solving for Uz, Initial residual = 0.00142874, Final residual = 8.10669e-05, No Iterations 4
GAMG:  Solving for p, Initial residual = 0.0288543, Final residual = 0.000905626, No Iterations 2
GAMG:  Solving for p, Initial residual = 0.00314713, Final residual = 0.000122193, No Iterations 2
GAMG:  Solving for p, Initial residual = 0.000384744, Final residual = 1.73354e-05, No Iterations 2
time step continuity errors : sum local = 1.9431e-06, global = 1.27872e-07, cumulative = -3.78721e-05
smoothSolver:  Solving for epsilon, Initial residual = 0.000839072, Final residual = 5.13754e-05, No Iterations 3
bounding epsilon, min: -0.00472278 max: 4.64014 average: 0.0935439
smoothSolver:  Solving for k, Initial residual = 0.00324042, Final residual = 0.000292943, No Iterations 3
ExecutionTime = 2236.4 s  ClockTime = 2251 s


    From function virtual bool Foam::regIOobject::readIfModified()
    in file db/regIOobject/regIOobjectRead.C at line 408
        Re-reading object fvSolution from file "/home/ofuser/workingDir/butterfly/indoor_temperature/system/fvSolution"
Time = 203

smoothSolver:  Solving for Ux, Initial residual = 0.00124211, Final residual = 7.55686e-05, No Iterations 4
smoothSolver:  Solving for Uy, Initial residual = 0.0055815, Final residual = 0.000337364, No Iterations 4
smoothSolver:  Solving for Uz, Initial residual = 0.00143204, Final residual = 8.20028e-05, No Iterations 4
