/*---------------------------------------------------------------------------*\
| =========                 |                                                 |
| \\      /  F ield         | OpenFOAM: The Open Source CFD Toolbox           |
|  \\    /   O peration     | Version:  v1606+                                |
|   \\  /    A nd           | Web:      www.OpenFOAM.com                      |
|    \\/     M anipulation  |                                                 |
\*---------------------------------------------------------------------------*/
Build  : v1606+
Exec   : snappyHexMesh
Date   : Aug 12 2016
Time   : 03:21:25
Host   : "default"
PID    : 1588
Case   : /home/ofuser/workingDir/butterfly/indoor_temperature
nProcs : 1
sigFpe : Enabling floating point exception trapping (FOAM_SIGFPE).
fileModificationChecking : Monitoring run-time modified files using timeStampMaster
allowSystemOperations : Allowing user-supplied system call operations

// * * * * * * * * * * * * * * * * * * * * * * * * * * * * * * * * * * * * * //
Create time

Create mesh for time = 0

Read mesh in = 0.09 s

Overall mesh bounding box  : (0 0 0) (10 10 10)
Relative tolerance         : 1e-06
Absolute matching distance : 1.73205e-05

Reading refinement surfaces.
Read refinement surfaces in = 0.01 s

Reading refinement shells.
Read refinement shells in = 0 s

Setting refinement level of surface to be consistent with shells.
For geometry indoor_temperature.stl detected 4 uncached triangles out of 28
Checked shell refinement in = 0 s

Reading features.
Read features in = 0 s


Determining initial surface intersections
-----------------------------------------

Edge intersection testing:
    Number of edges             : 13056
    Number of edges to retest   : 13056
    Number of intersected edges : 960
Calculated surface intersections in = 0.06 s

Initial mesh : cells:4096  faces:13056  points:4913
Cells per refinement level:
    0	4096

Adding patches for surface regions
----------------------------------

Patch Type                Region                        
----- ----                ------                        
indoor_temperature:

1     wall                west_window                   
2     wall                room                          
3     wall                east_window                   

Added patches in = 0 s

Edge intersection testing:
    Number of edges             : 13056
    Number of edges to retest   : 0
    Number of intersected edges : 960
Selecting decompositionMethod none

Refinement phase
----------------

Found point (5 5 5) in cell 1911 on processor 0

Surface refinement iteration 0
------------------------------

Marked for refinement due to surface intersection          : 1632 cells.
Determined cells to refine in = 0.08 s
Selected for refinement : 1632 cells (out of 4096)
Edge intersection testing:
    Number of edges             : 50172
    Number of edges to retest   : 47420
    Number of intersected edges : 4352
Refined mesh in = 0.22 s
After refinement surface refinement iteration 0 : cells:15520  faces:50172  points:19192
Cells per refinement level:
    0	2464
    1	13056

Surface refinement iteration 1
------------------------------

Marked for refinement due to surface intersection          : 7208 cells.
Determined cells to refine in = 0.01 s
Selected for refinement : 8024 cells (out of 15520)
Edge intersection testing:
    Number of edges             : 231996
    Number of edges to retest   : 221056
    Number of intersected edges : 16176
Refined mesh in = 1.18 s
After refinement surface refinement iteration 1 : cells:71688  faces:231996  points:88696
Cells per refinement level:
    0	1544
    1	13312
    2	56832

Surface refinement iteration 2
------------------------------

Marked for refinement due to surface intersection          : 2148 cells.
Determined cells to refine in = 0.03 s
Selected for refinement : 2356 cells (out of 71688)
Edge intersection testing:
    Number of edges             : 284448
    Number of edges to retest   : 85604
    Number of intersected edges : 20100
Refined mesh in = 1.02 s
After refinement surface refinement iteration 2 : cells:88180  faces:284448  points:108264
Cells per refinement level:
    0	1332
    1	14384
    2	60304
    3	12160

Surface refinement iteration 3
------------------------------

Marked for refinement due to surface intersection          : 5808 cells.
Determined cells to refine in = 0.04 s
Selected for refinement : 6904 cells (out of 88180)
Edge intersection testing:
    Number of edges             : 440067
    Number of edges to retest   : 194229
    Number of intersected edges : 29192
Refined mesh in = 1.66 s
After refinement surface refinement iteration 3 : cells:136508  faces:440067  points:167435
Cells per refinement level:
    0	1320
    1	14244
    2	61314
    3	13406
    4	46224

Surface refinement iteration 4
------------------------------

Marked for refinement due to surface intersection          : 22800 cells.
Determined cells to refine in = 0.06 s
Selected for refinement : 23640 cells (out of 136508)
Edge intersection testing:
    Number of edges             : 974187
    Number of edges to retest   : 695188
    Number of intersected edges : 66048
Refined mesh in = 4.27 s
After refinement surface refinement iteration 4 : cells:301988  faces:974187  points:370983
Cells per refinement level:
    0	1320
    1	14244
    2	61080
    3	14672
    4	28272
    5	182400

Surface refinement iteration 5
------------------------------

Marked for refinement due to surface intersection          : 1060 cells.
Determined cells to refine in = 0.12 s
Selected for refinement : 1194 cells (out of 301988)
Edge intersection testing:
    Number of edges             : 1001838
    Number of edges to retest   : 63724
    Number of intersected edges : 68612
Refined mesh in = 3.35 s
After refinement surface refinement iteration 5 : cells:310346  faces:1001838  points:381927
Cells per refinement level:
    0	1320
    1	14244
    2	61034
    3	14952
    4	27916
    5	190880

Surface refinement iteration 6
------------------------------

Marked for refinement due to surface intersection          : 10 cells.
Determined cells to refine in = 0.12 s
Selected for refinement : 14 cells (out of 310346)
Edge intersection testing:
    Number of edges             : 1002162
    Number of edges to retest   : 1158
    Number of intersected edges : 68642
Refined mesh in = 3.17 s
After refinement surface refinement iteration 6 : cells:310444  faces:1002162  points:382055
Cells per refinement level:
    0	1320
    1	14244
    2	61032
    3	14966
    4	27922
    5	190960

Surface refinement iteration 7
------------------------------

Marked for refinement due to surface intersection          : 0 cells.
Determined cells to refine in = 0.09 s
Selected for refinement : 0 cells (out of 310444)
Stopping refining since too few cells selected.


Removing mesh beyond surface intersections
------------------------------------------

Setting cellZones according to locationsInMesh:
Location : (5 5 5)
    cellZone : none

For cellZone none found point (5 5 5) in global region 1 out of 2 regions.
Keeping all cells containing points 1((5 5 5))
Selected for keeping : 271952 cells.
Edge intersection testing:
    Number of edges             : 892548
    Number of edges to retest   : 71454
    Number of intersected edges : 68642

Shell refinement iteration 0
----------------------------

Marked for refinement due to distance to explicit features : 0 cells.
Marked for refinement due to refinement shells             : 0 cells.
Determined cells to refine in = 20.32 s
Selected for internal refinement : 8483 cells (out of 271952)
Edge intersection testing:
    Number of edges             : 1075668
    Number of edges to retest   : 380903
    Number of intersected edges : 72672
Refined mesh in = 4.26 s
After refinement shell refinement iteration 0 : cells:331333  faces:1075668  points:413552
Cells per refinement level:
    0	1153
    1	10022
    2	57844
    3	10774
    4	45620
    5	205920

Shell refinement iteration 1
----------------------------

Marked for refinement due to distance to explicit features : 0 cells.
Marked for refinement due to refinement shells             : 0 cells.
Determined cells to refine in = 0.82 s
Selected for internal refinement : 3827 cells (out of 331333)
Edge intersection testing:
    Number of edges             : 1159155
    Number of edges to retest   : 192055
    Number of intersected edges : 75723
Refined mesh in = 4.07 s
After refinement shell refinement iteration 1 : cells:358122  faces:1159155  points:443480
Cells per refinement level:
    0	959
    1	11520
    2	56971
    3	20656
    4	48368
    5	219648

Shell refinement iteration 2
----------------------------

Marked for refinement due to distance to explicit features : 0 cells.
Marked for refinement due to refinement shells             : 0 cells.
Determined cells to refine in = 0.88 s
Selected for internal refinement : 1258 cells (out of 358122)
Edge intersection testing:
    Number of edges             : 1187337
    Number of edges to retest   : 71082
    Number of intersected edges : 76707
Refined mesh in = 3.97 s
After refinement shell refinement iteration 2 : cells:366928  faces:1187337  points:454018
Cells per refinement level:
    0	959
    1	11194
    2	59533
    3	20138
    4	55456
    5	219648

Shell refinement iteration 3
----------------------------

Marked for refinement due to distance to explicit features : 0 cells.
Marked for refinement due to refinement shells             : 0 cells.
Determined cells to refine in = 0.91 s
Selected for internal refinement : 258 cells (out of 366928)
Edge intersection testing:
    Number of edges             : 1193028
    Number of edges to retest   : 14039
    Number of intersected edges : 76969
Refined mesh in = 3.86 s
After refinement shell refinement iteration 3 : cells:368734  faces:1193028  points:456098
Cells per refinement level:
    0	959
    1	11190
    2	59313
    3	22152
    4	55472
    5	219648

Shell refinement iteration 4
----------------------------

Marked for refinement due to distance to explicit features : 0 cells.
Marked for refinement due to refinement shells             : 0 cells.
Determined cells to refine in = 0.92 s
Selected for internal refinement : 4 cells (out of 368734)
Stopping refining since too few cells selected.


Dangling coarse cells refinement iteration 0
--------------------------------------------

Determined cells to refine in = 0.04 s
Selected for refinement : 1 cells (out of 368734)
Edge intersection testing:
    Number of edges             : 1193043
    Number of edges to retest   : 127
    Number of intersected edges : 76969
Refined mesh in = 3.86 s
After refinement coarse cell refinement iteration 0 : cells:368741  faces:1193043  points:456100
Cells per refinement level:
    0	959
    1	11189
    2	59321
    3	22152
    4	55472
    5	219648

Dangling coarse cells refinement iteration 1
--------------------------------------------

Determined cells to refine in = 0.05 s
Selected for refinement : 0 cells (out of 368741)
Stopping refining since too few cells selected.


Dangling coarse cells refinement iteration 0
--------------------------------------------

Determined cells to refine in = 0.03 s
Selected for refinement : 0 cells (out of 368741)
Stopping refining since too few cells selected.


Refinement transition refinement iteration 0
--------------------------------------------

Determined cells to refine in = 0.09 s
Selected for refinement : 0 cells (out of 368741)
Stopping refining since too few cells selected.


Splitting mesh at surface intersections
---------------------------------------

Introducing baffles for 76969 faces that are intersected by the surface.

Setting cellZones according to locationsInMesh:
Location : (5 5 5)
    cellZone : none

For cellZone none found point (5 5 5) in global region 1 out of 2 regions.
Edge intersection testing:
    Number of edges             : 1267308
    Number of edges to retest   : 595418
    Number of intersected edges : 149142
Created baffles in = 21.06 s


After introducing baffles : cells:368741  faces:1267308  points:456100
Cells per refinement level:
    0	959
    1	11189
    2	59321
    3	22152
    4	55472
    5	219648

Introducing baffles to block off problem cells
----------------------------------------------

markFacesOnProblemCells : marked 133288 additional internal faces to be converted into baffles.
Analyzed problem cells in = 6.02 s


Introducing baffles to delete problem cells.

Edge intersection testing:
    Number of edges             : 1400596
    Number of edges to retest   : 409071
    Number of intersected edges : 149142
Created baffles in = 8.11 s


After introducing baffles : cells:368741  faces:1400596  points:456100
Cells per refinement level:
    0	959
    1	11189
    2	59321
    3	22152
    4	55472
    5	219648
Setting cellZones according to locationsInMesh:
Location : (5 5 5)
    cellZone : none

For cellZone none found point (5 5 5) in global region 1 out of 65583 regions.
Edge intersection testing:
    Number of edges             : 1400596
    Number of edges to retest   : 302064
    Number of intersected edges : 149142

Remove unreachable sections of mesh
-----------------------------------

Keeping all cells containing points 1((5 5 5))
Selected for keeping : 280264 cells.
Edge intersection testing:
    Number of edges             : 917723
    Number of edges to retest   : 0
    Number of intersected edges : 75357
Split mesh in = 39.11 s


After subsetting : cells:280264  faces:917723  points:358004
Cells per refinement level:
    0	846
    1	6933
    2	43489
    3	16646
    4	47638
    5	164712

Introducing zones for interfaces
--------------------------------

Setting cellZones according to locationsInMesh:
Location : (5 5 5)
    cellZone : none

For cellZone none found point (5 5 5) in global region 0 out of 1 regions.
Setting faceZones according to neighbouring cellZones:

Edge intersection testing:
    Number of edges             : 917723
    Number of edges to retest   : 0
    Number of intersected edges : 75357

Handling cells with snap problems
---------------------------------

Introducing baffles for 75357 faces that are intersected by the surface.

Setting cellZones according to locationsInMesh:
Location : (5 5 5)
    cellZone : none

For cellZone none found point (5 5 5) in global region 0 out of 1 regions.
Edge intersection testing:
    Number of edges             : 917723
    Number of edges to retest   : 302064
    Number of intersected edges : 75357
Created baffles in = 41.69 s


After introducing baffles : cells:280264  faces:917723  points:358004
Cells per refinement level:
    0	846
    1	6933
    2	43489
    3	16646
    4	47638
    5	164712

Introducing baffles to block off problem cells
----------------------------------------------

markFacesOnProblemCells : marked 0 additional internal faces to be converted into baffles.
Analyzed problem cells in = 1.96 s


Introducing baffles to delete problem cells.

Created baffles in = 0.21 s


After introducing baffles : cells:280264  faces:917723  points:358004
Cells per refinement level:
    0	846
    1	6933
    2	43489
    3	16646
    4	47638
    5	164712
Setting cellZones according to locationsInMesh:
Location : (5 5 5)
    cellZone : none

For cellZone none found point (5 5 5) in global region 0 out of 1 regions.
Edge intersection testing:
    Number of edges             : 917723
    Number of edges to retest   : 302064
    Number of intersected edges : 75357

Remove unreachable sections of mesh
-----------------------------------

Split mesh in = 26.65 s


After subsetting : cells:280264  faces:917723  points:358004
Cells per refinement level:
    0	846
    1	6933
    2	43489
    3	16646
    4	47638
    5	164712

Merge free-standing baffles
---------------------------

freeStandingBaffles : detected 0 free-standing baffles out of 0

Detected free-standing baffles : 0
Merged free-standing baffles in = 0.73 s


dupNonManifoldPoints : Found : 0 non-manifold points (out of 358004)
Detected unsplittable baffles : 0

Merge refined boundary faces
----------------------------

Merging 252 sets of faces.

Edge intersection testing:
    Number of edges             : 917447
    Number of edges to retest   : 1788
    Number of intersected edges : 75081

Undo iteration 0
----------------
Checking faces in error :
    non-orthogonality > 60  degrees                        : 0
    faces with face pyramid volume < 1e-13                 : 0
    faces with face-decomposition tet quality < 1e-15      : 0
    faces with concavity > 80  degrees                     : 0
    faces with skewness > 4   (internal) or 20  (boundary) : 0
    faces with interpolation weights (0..1)  < 0.02        : 0
    faces with volume ratio of neighbour cells < 0.01      : 0
    faces with face twist < 0.02                           : 0
    faces on cells with determinant < 0.001                : 0

Merging all points on surface that
- are used by only two boundary faces and
- make an angle with a cosine of more than 0.707107.

Removing 264 straight edge points ...

Edge intersection testing:
    Number of edges             : 917447
    Number of edges to retest   : 1872
    Number of intersected edges : 75081

Undo iteration 0
----------------
Checking faces in error :
    non-orthogonality > 60  degrees                        : 0
    faces with face pyramid volume < 1e-13                 : 0
    faces with face-decomposition tet quality < 1e-15      : 0
    faces with concavity > 80  degrees                     : 0
    faces with skewness > 4   (internal) or 20  (boundary) : 0
    faces with interpolation weights (0..1)  < 0.02        : 0
    faces with volume ratio of neighbour cells < 0.01      : 0
    faces with face twist < 0.02                           : 0
    faces on cells with determinant < 0.001                : 0
Refined mesh : cells:280264  faces:917447  points:357728
Cells per refinement level:
    0	846
    1	6933
    2	43489
    3	16646
    4	47638
    5	164712
Writing mesh to time 1
Wrote mesh in = 16.72 s.
Mesh refined in = 221.76 s.

Morphing phase
--------------

Duplicating 0 points on faceZones of type boundary
Constructing mesh displacer ...
Using mesh parameters 
{
    maxNonOrtho     60;
    maxBoundarySkewness 20;
    maxInternalSkewness 4;
    maxConcave      80;
    minFlatness     0.5;
    minVol          1e-13;
    minTetQuality   1e-15;
    minArea         -1;
    minTwist        0.02;
    minDeterminant  0.001;
    minFaceWeight   0.02;
    minVolRatio     0.01;
    minTriangleTwist -1;
    nSmoothScale    4;
    errorReduction  0.75;
}


Checking initial mesh ...
Checking faces in error :
    non-orthogonality > 60  degrees                        : 0
    faces with face pyramid volume < 1e-13                 : 0
    faces with face-decomposition tet quality < 1e-15      : 0
    faces with concavity > 80  degrees                     : 0
    faces with skewness > 4   (internal) or 20  (boundary) : 0
    faces with interpolation weights (0..1)  < 0.02        : 0
    faces with volume ratio of neighbour cells < 0.01      : 0
    faces with face twist < 0.02                           : 0
    faces on cells with determinant < 0.001                : 0
Detected 0 illegal faces (concave, zero area or negative cell pyramid volume)
Checked initial mesh in = 3.97 s


Smoothing patch points ...
Smoothing iteration 0
Found 0 non-manifold point(s).

Scaling iteration 0
Moving mesh using displacement scaling : min:1  max:1
Checking faces in error :
    non-orthogonality > 60  degrees                        : 0
    faces with face pyramid volume < 1e-13                 : 0
    faces with face-decomposition tet quality < 1e-15      : 0
    faces with concavity > 80  degrees                     : 0
    faces with skewness > 4   (internal) or 20  (boundary) : 0
    faces with interpolation weights (0..1)  < 0.02        : 0
    faces with volume ratio of neighbour cells < 0.01      : 0
    faces with face twist < 0.02                           : 0
    faces on cells with determinant < 0.001                : 0
Successfully moved mesh

Smoothing iteration 1
Found 0 non-manifold point(s).

Scaling iteration 0
Moving mesh using displacement scaling : min:1  max:1
Checking faces in error :
    non-orthogonality > 60  degrees                        : 0
    faces with face pyramid volume < 1e-13                 : 0
    faces with face-decomposition tet quality < 1e-15      : 0
    faces with concavity > 80  degrees                     : 0
    faces with skewness > 4   (internal) or 20  (boundary) : 0
    faces with interpolation weights (0..1)  < 0.02        : 0
    faces with volume ratio of neighbour cells < 0.01      : 0
    faces with face twist < 0.02                           : 0
    faces on cells with determinant < 0.001                : 0
Successfully moved mesh

Smoothing iteration 2
Found 0 non-manifold point(s).

Scaling iteration 0
Moving mesh using displacement scaling : min:1  max:1
Checking faces in error :
    non-orthogonality > 60  degrees                        : 0
    faces with face pyramid volume < 1e-13                 : 0
    faces with face-decomposition tet quality < 1e-15      : 0
    faces with concavity > 80  degrees                     : 0
    faces with skewness > 4   (internal) or 20  (boundary) : 0
    faces with interpolation weights (0..1)  < 0.02        : 0
    faces with volume ratio of neighbour cells < 0.01      : 0
    faces with face twist < 0.02                           : 0
    faces on cells with determinant < 0.001                : 0
Successfully moved mesh

Patch points smoothed in = 13.71 s



Morph iteration 0
-----------------
Calculating patchDisplacement as distance to nearest surface point ...
    non-zone points : attract to nearest of all non-zone surfaces
    zone points     : attract to zone surface only

Wanted displacement : average:0.00986388 min:3.25618e-06 max:0.0425909
Calculated surface displacement in = 0.12 s


Detecting near surfaces ...
Overriding nearest with intersection of close gaps at 0 out of 77431 points.
--> FOAM Warning : Displacement (0.0013864 0 0) at mesh point 198921 coord (0.998614 2.12891 1.17188) points through the surrounding patch faces
Smoothing displacement ...
Iteration 0
Iteration 10
Iteration 20
Displacement smoothed in = 3.68 s


Moving mesh ...

Iteration 0
Moving mesh using displacement scaling : min:1  max:1
Checking faces in error :
    non-orthogonality > 60  degrees                        : 0
    faces with face pyramid volume < 1e-13                 : 0
    faces with face-decomposition tet quality < 1e-15      : 0
    faces with concavity > 80  degrees                     : 0
    faces with skewness > 4   (internal) or 20  (boundary) : 0
    faces with interpolation weights (0..1)  < 0.02        : 0
    faces with volume ratio of neighbour cells < 0.01      : 0
    faces with face twist < 0.02                           : 0
    faces on cells with determinant < 0.001                : 0
Successfully moved mesh
Moved mesh in = 4.31 s


Repatching faces according to nearest surface ...
Repatched 0 faces in = 1.38 s


Edge intersection testing:
    Number of edges             : 917447
    Number of edges to retest   : 301788
    Number of intersected edges : 76689
Merging 1823 sets of faces.

Edge intersection testing:
    Number of edges             : 915595
    Number of edges to retest   : 7772
    Number of intersected edges : 74837

Undo iteration 0
----------------
Checking faces in error :
    non-orthogonality > 60  degrees                        : 0
    faces with face pyramid volume < 1e-13                 : 0
    faces with face-decomposition tet quality < 1e-15      : 0
    faces with concavity > 80  degrees                     : 0
    faces with skewness > 4   (internal) or 20  (boundary) : 0
    faces with interpolation weights (0..1)  < 0.02        : 0
    faces with volume ratio of neighbour cells < 0.01      : 0
    faces with face twist < 0.02                           : 0
    faces on cells with determinant < 0.001                : 0

Merging all points on surface that
- are used by only two boundary faces and
- make an angle with a cosine of more than 0.866025.

Removing 1794 straight edge points ...

Edge intersection testing:
    Number of edges             : 915595
    Number of edges to retest   : 7708
    Number of intersected edges : 74837

Undo iteration 0
----------------
Checking faces in error :
    non-orthogonality > 60  degrees                        : 0
    faces with face pyramid volume < 1e-13                 : 0
    faces with face-decomposition tet quality < 1e-15      : 0
    faces with concavity > 80  degrees                     : 0
    faces with skewness > 4   (internal) or 20  (boundary) : 0
    faces with interpolation weights (0..1)  < 0.02        : 0
    faces with volume ratio of neighbour cells < 0.01      : 0
    faces with face twist < 0.02                           : 0
    faces on cells with determinant < 0.001                : 0
Snapped mesh : cells:280264  faces:915595  points:355905
Cells per refinement level:
    0	846
    1	6933
    2	43489
    3	16646
    4	47638
    5	164712
Writing mesh to time 2
Wrote mesh in = 20.46 s.
Mesh snapped in = 47.63 s.
Layer thickness specified as final layer and expansion ratio.

Shrinking and layer addition phase
----------------------------------

Using mesh parameters 
{
    maxNonOrtho     60;
    maxBoundarySkewness 20;
    maxInternalSkewness 4;
    maxConcave      80;
    minFlatness     0.5;
    minVol          1e-13;
    minTetQuality   1e-15;
    minArea         -1;
    minTwist        0.02;
    minDeterminant  0.001;
    minFaceWeight   0.02;
    minVolRatio     0.01;
    minTriangleTwist -1;
    nSmoothScale    4;
    errorReduction  0.75;
}



Merging all faces of a cell
---------------------------
    - which are on the same patch
    - which make an angle < 60 degrees (cos:0.5)
    - as long as the resulting face doesn't become concave by more than 90 degrees
      (0=straight, 180=fully concave)

Merging 204 sets of faces.

Edge intersection testing:
    Number of edges             : 915391
    Number of edges to retest   : 816
    Number of intersected edges : 74433

Undo iteration 0
----------------
Checking faces in error :
    non-orthogonality > 60  degrees                        : 0
    faces with face pyramid volume < 1e-13                 : 0
    faces with face-decomposition tet quality < 1e-15      : 0
    faces with concavity > 80  degrees                     : 0
    faces with skewness > 4   (internal) or 20  (boundary) : 0
    faces with interpolation weights (0..1)  < 0.02        : 0
    faces with volume ratio of neighbour cells < 0.01      : 0
    faces with face twist < 0.02                           : 0
    faces on cells with determinant < 0.001                : 0

Merging all points on surface that
- are used by only two boundary faces and
- make an angle with a cosine of more than 0.5.

Removing 200 straight edge points ...

Edge intersection testing:
    Number of edges             : 915391
    Number of edges to retest   : 816
    Number of intersected edges : 74433

Undo iteration 0
----------------
Checking faces in error :
    non-orthogonality > 60  degrees                        : 0
    faces with face pyramid volume < 1e-13                 : 0
    faces with face-decomposition tet quality < 1e-15      : 0
    faces with concavity > 80  degrees                     : 0
    faces with skewness > 4   (internal) or 20  (boundary) : 0
    faces with interpolation weights (0..1)  < 0.02        : 0
    faces with volume ratio of neighbour cells < 0.01      : 0
    faces with face twist < 0.02                           : 0
    faces on cells with determinant < 0.001                : 0

No layers to generate ...
Layer mesh : cells:280264  faces:915391  points:355705
Cells per refinement level:
    0	846
    1	6933
    2	43489
    3	16646
    4	47638
    5	164712
Writing mesh to time 3
Wrote mesh in = 26.54 s.
Layers added in = 26.54 s.
Checking final mesh ...
Checking faces in error :
    non-orthogonality > 60  degrees                        : 0
    faces with face pyramid volume < 1e-13                 : 0
    faces with face-decomposition tet quality < 1e-15      : 0
    faces with concavity > 80  degrees                     : 0
    faces with skewness > 4   (internal) or 20  (boundary) : 0
    faces with interpolation weights (0..1)  < 0.02        : 0
    faces with volume ratio of neighbour cells < 0.01      : 0
    faces with face twist < 0.02                           : 0
    faces on cells with determinant < 0.001                : 0
Finished meshing without any errors
Finished meshing in = 299.72 s.
End

