/*---------------------------------------------------------------------------*\
| =========                 |                                                 |
| \\      /  F ield         | OpenFOAM: The Open Source CFD Toolbox           |
|  \\    /   O peration     | Version:  v1612+                                |
|   \\  /    A nd           | Web:      www.OpenFOAM.com                      |
|    \\/     M anipulation  |                                                 |
\*---------------------------------------------------------------------------*/
Build  : v1612+
Exec   : snappyHexMesh
Date   : Feb 12 2017
Time   : 00:18:25
Host   : "default"
PID    : 14236
Case   : /home/ofuser/workingDir/butterfly/heat_transfer
nProcs : 1
sigFpe : Enabling floating point exception trapping (FOAM_SIGFPE).
fileModificationChecking : Monitoring run-time modified files using timeStampMaster (fileModificationSkew 10)
allowSystemOperations : Allowing user-supplied system call operations

// * * * * * * * * * * * * * * * * * * * * * * * * * * * * * * * * * * * * * //
Create time

Create mesh for time = 0

Read mesh in = 0.04 s

Overall mesh bounding box  : (0 -2.220446e-16 -1) (10 10 10)
Relative tolerance         : 1e-06
Absolute matching distance : 1.791647e-05

Reading refinement surfaces.
Read refinement surfaces in = 0.01 s

Reading refinement shells.
Read refinement shells in = 0 s

Setting refinement level of surface to be consistent with shells.
For geometry heat_transfer.stl detected 0 uncached triangles out of 12
Checked shell refinement in = 0 s

Reading features.
Read features in = 0 s


Determining initial surface intersections
-----------------------------------------

Edge intersection testing:
    Number of edges             : 3620
    Number of edges to retest   : 3620
    Number of intersected edges : 416
Calculated surface intersections in = 0.01 s

Initial mesh : cells:1100  faces:3620  points:1452
Cells per refinement level:
    0	1100

Adding patches for surface regions
----------------------------------

Patch Type                Region                        
----- ----                ------                        
heat_transfer:

1     wall                room                          
2     wall                roof                          
3     wall                floor                         

Added patches in = 0 s

Edge intersection testing:
    Number of edges             : 3620
    Number of edges to retest   : 0
    Number of intersected edges : 416
Selecting decompositionMethod none

Refinement phase
----------------

Found point (5 5 4.5) in cell 544 on processor 0

Surface refinement iteration 0
------------------------------

Marked for refinement due to surface intersection          : 0 cells.
Determined cells to refine in = 0.02 s
Selected for refinement : 0 cells (out of 1100)
Stopping refining since too few cells selected.


Removing mesh beyond surface intersections
------------------------------------------

Setting cellZones according to locationsInMesh:
Location : (5 5 4.5)
    cellZone : none

For cellZone none found point (5 5 4.5) in global region 1 out of 2 regions.
Keeping all cells containing points 1((5 5 4.5))
Selected for keeping : 1100 cells.
Edge intersection testing:
    Number of edges             : 3620
    Number of edges to retest   : 0
    Number of intersected edges : 416

Shell refinement iteration 0
----------------------------

Marked for refinement due to distance to explicit features : 0 cells.
Marked for refinement due to refinement shells             : 0 cells.
Determined cells to refine in = 0.01 s
Selected for internal refinement : 0 cells (out of 1100)
Stopping refining since too few cells selected.


Dangling coarse cells refinement iteration 0
--------------------------------------------

Determined cells to refine in = 0.01 s
Selected for refinement : 0 cells (out of 1100)
Stopping refining since too few cells selected.


Dangling coarse cells refinement iteration 0
--------------------------------------------

Determined cells to refine in = 0 s
Selected for refinement : 0 cells (out of 1100)
Stopping refining since too few cells selected.


Refinement transition refinement iteration 0
--------------------------------------------

Determined cells to refine in = 0.03 s
Selected for refinement : 0 cells (out of 1100)
Stopping refining since too few cells selected.


Splitting mesh at surface intersections
---------------------------------------

Introducing baffles for 416 faces that are intersected by the surface.

Setting cellZones according to locationsInMesh:
Location : (5 5 4.5)
    cellZone : none

For cellZone none found point (5 5 4.5) in global region 1 out of 2 regions.
Edge intersection testing:
    Number of edges             : 4036
    Number of edges to retest   : 3064
    Number of intersected edges : 832
Created baffles in = 0.03 s


After introducing baffles : cells:1100  faces:4036  points:1452
Cells per refinement level:
    0	1100

Introducing baffles to block off problem cells
----------------------------------------------

markFacesOnProblemCells : marked 0 additional internal faces to be converted into baffles.
Analyzed problem cells in = 0 s


Introducing baffles to delete problem cells.

Created baffles in = 0 s


After introducing baffles : cells:1100  faces:4036  points:1452
Cells per refinement level:
    0	1100
Setting cellZones according to locationsInMesh:
Location : (5 5 4.5)
    cellZone : none

For cellZone none found point (5 5 4.5) in global region 1 out of 2 regions.
Edge intersection testing:
    Number of edges             : 4036
    Number of edges to retest   : 3064
    Number of intersected edges : 832

Remove unreachable sections of mesh
-----------------------------------

Keeping all cells containing points 1((5 5 4.5))
Selected for keeping : 576 cells.
Edge intersection testing:
    Number of edges             : 1936
    Number of edges to retest   : 0
    Number of intersected edges : 416
Split mesh in = 0.04 s


After subsetting : cells:576  faces:1936  points:810
Cells per refinement level:
    0	576

Introducing zones for interfaces
--------------------------------

Setting cellZones according to locationsInMesh:
Location : (5 5 4.5)
    cellZone : none

For cellZone none found point (5 5 4.5) in global region 0 out of 1 regions.
Setting faceZones according to neighbouring cellZones:

Edge intersection testing:
    Number of edges             : 1936
    Number of edges to retest   : 0
    Number of intersected edges : 416

Handling cells with snap problems
---------------------------------

Introducing baffles for 416 faces that are intersected by the surface.

Setting cellZones according to locationsInMesh:
Location : (5 5 4.5)
    cellZone : none

For cellZone none found point (5 5 4.5) in global region 0 out of 1 regions.
Edge intersection testing:
    Number of edges             : 1936
    Number of edges to retest   : 1300
    Number of intersected edges : 416
Created baffles in = 0.03 s


After introducing baffles : cells:576  faces:1936  points:810
Cells per refinement level:
    0	576

Introducing baffles to block off problem cells
----------------------------------------------

markFacesOnProblemCells : marked 0 additional internal faces to be converted into baffles.
Analyzed problem cells in = 0 s


Introducing baffles to delete problem cells.

Created baffles in = 0 s


After introducing baffles : cells:576  faces:1936  points:810
Cells per refinement level:
    0	576
Setting cellZones according to locationsInMesh:
Location : (5 5 4.5)
    cellZone : none

For cellZone none found point (5 5 4.5) in global region 0 out of 1 regions.
Edge intersection testing:
    Number of edges             : 1936
    Number of edges to retest   : 1300
    Number of intersected edges : 416

Remove unreachable sections of mesh
-----------------------------------

Split mesh in = 0.01 s


After subsetting : cells:576  faces:1936  points:810
Cells per refinement level:
    0	576

Merge free-standing baffles
---------------------------

freeStandingBaffles : detected 0 free-standing baffles out of 0

Detected free-standing baffles : 0
Merged free-standing baffles in = 0 s


dupNonManifoldPoints : Found : 0 non-manifold points (out of 810)
Detected unsplittable baffles : 0

Merge refined boundary faces
----------------------------

Merging 0 sets of faces.

No faces merged ...

Merging all points on surface that
- are used by only two boundary faces and
- make an angle with a cosine of more than 0.7071068.

No straight edges simplified and no points removed ...
Refined mesh : cells:576  faces:1936  points:810
Cells per refinement level:
    0	576
Writing mesh to time 1
Wrote mesh in = 0.05 s.
Mesh refined in = 0.22 s.
Checking final mesh ...
Checking faces in error :
    non-orthogonality > 60  degrees                        : 0
    faces with face pyramid volume < 1e-13                 : 0
    faces with face-decomposition tet quality < 1e-15      : 0
    faces with concavity > 80  degrees                     : 0
    faces with skewness > 4   (internal) or 20  (boundary) : 0
    faces with interpolation weights (0..1)  < 0.02        : 0
    faces with volume ratio of neighbour cells < 0.01      : 0
    faces with face twist < 0.02                           : 0
    faces on cells with determinant < 0.001                : 0
Finished meshing without any errors
Finished meshing in = 0.3 s.
End

